# MOL2 file generated by ConQuest
# Please check atom types

@<TRIPOS>MOLECULE
YEJFIE
    40    42     1
SMALL
NO_CHARGES
****
Generated from CSD

@<TRIPOS>ATOM
      1 C1         2.4679    3.0993   -2.1390 C.3       1 RES1    0.0000
      2 H1         3.0154    2.7131   -2.8542 H         1 RES1    0.0000
      3 C2         2.8871    4.4819   -1.8313 C.3       1 RES1    0.0000
      4 H2         3.5792    4.7452   -2.4584 H         1 RES1    0.0000
      5 H3         2.1303    5.0736   -1.9628 H         1 RES1    0.0000
      6 C3         3.3377    3.4375    0.0868 C.3       1 RES1    0.0000
      7 H4         4.2476    3.1923    0.3550 H         1 RES1    0.0000
      8 C4         2.7069    2.3651   -0.7822 C.3       1 RES1    0.0000
      9 H5         3.3251    1.6147   -0.9032 H         1 RES1    0.0000
     10 C5         1.1498    2.9055    0.7901 C.3       1 RES1    0.0000
     11 H6         0.6751    2.4809    1.5224 H         1 RES1    0.0000
     12 H7         0.5691    3.5695    0.3865 H         1 RES1    0.0000
     13 C6         2.4166    3.5415    1.2831 C.3       1 RES1    0.0000
     14 H8         2.2733    4.4741    1.5474 H         1 RES1    0.0000
     15 C7         3.8612    3.3289    3.1329 C.2       1 RES1    0.0000
     16 C8         4.3658    2.4458    4.1951 C.ar      1 RES1    0.0000
     17 C9         5.4070    2.9049    5.0076 C.ar      1 RES1    0.0000
     18 H9         5.7446    3.7626    4.8853 H         1 RES1    0.0000
     19 C10        5.9360    2.0959    5.9883 C.ar      1 RES1    0.0000
     20 H10        6.6252    2.4003    6.5326 H         1 RES1    0.0000
     21 C11        5.4315    0.8441    6.1448 C.ar      1 RES1    0.0000
     22 C12        4.4205    0.3518    5.3770 C.ar      1 RES1    0.0000
     23 H11        4.0980   -0.5098    5.5124 H         1 RES1    0.0000
     24 C13        3.8882    1.1543    4.3989 C.ar      1 RES1    0.0000
     25 H12        3.1994    0.8304    3.8638 H         1 RES1    0.0000
     26 C14        6.9925   -0.7205    6.9744 C.2       1 RES1    0.0000
     27 C15        7.4083   -1.4482    8.2049 C.3       1 RES1    0.0000
     28 H13        7.8553   -2.2617    7.9590 H         1 RES1    0.0000
     29 H14        6.6329   -1.6557    8.7308 H         1 RES1    0.0000
     30 H15        8.0043   -0.8968    8.7163 H         1 RES1    0.0000
     31 N1         0.6169    1.9808   -3.0080 N.pl3     1 RES1    0.0000
     32 O1        -0.4954    2.0387   -3.3248 O.2       1 RES1    0.0000
     33 O2         1.3730    1.0606   -3.0579 O.2       1 RES1    0.0000
     34 O3         3.3248    4.6392   -0.6547 O.3       1 RES1    0.0000
     35 O4         1.5457    1.9385   -0.1735 O.3       1 RES1    0.0000
     36 O5         2.9195    2.7514    2.3743 O.3       1 RES1    0.0000
     37 O6         4.2565    4.4435    2.9422 O.2       1 RES1    0.0000
     38 O7         5.9180    0.0527    7.2071 O.3       1 RES1    0.0000
     39 O8         7.4991   -0.7979    5.9160 O.2       1 RES1    0.0000
     40 O9         1.1197    3.1650   -2.5110 O.3       1 RES1    0.0000
@<TRIPOS>BOND
     1    1    2 1
     2    3    1 1
     3    4    3 1
     4    5    3 1
     5    6    7 1
     6    8    1 1
     7    9    8 1
     8   10   11 1
     9   12   10 1
    10   13    6 1
    11   14   13 1
    12   15   16 1
    13   16   17 ar
    14   17   18 1
    15   19   17 ar
    16   20   19 1
    17   21   19 ar
    18   22   21 ar
    19   23   22 1
    20   24   16 ar
    21   25   24 1
    22   26   27 1
    23   27   28 1
    24   29   27 1
    25   30   27 1
    26   31   32 2
    27   33   31 2
    28   34    3 1
    29   35    8 1
    30   36   13 1
    31   37   15 2
    32   38   21 1
    33   39   26 2
    34   40    1 1
    35    6    8 1
    36    6   34 1
    37   10   13 1
    38   10   35 1
    39   15   36 1
    40   22   24 ar
    41   26   38 1
    42   31   40 1
@<TRIPOS>SUBSTRUCTURE
     1 RES1 1

@<TRIPOS>CRYSIN
   9.5540    6.5030   13.3120  90.0000  99.0370  90.0000   4 1

