# MOL2 file generated by ConQuest
# Please check atom types

@<TRIPOS>MOLECULE
YEJFEA
    50    52     1
SMALL
NO_CHARGES
****
Generated from CSD

@<TRIPOS>ATOM
      1 C1        -0.7983    3.9740    4.7153 C.ar      1 RES1    0.0000
      2 H1        -0.5640    3.4797    3.9634 H         1 RES1    0.0000
      3 C2        -1.8515    3.5774    5.4656 C.ar      1 RES1    0.0000
      4 C3        -2.1445    4.2461    6.6253 C.ar      1 RES1    0.0000
      5 C4        -1.4243    5.3358    6.9806 C.ar      1 RES1    0.0000
      6 H2        -1.6532    5.8045    7.7500 H         1 RES1    0.0000
      7 C5        -0.3604    5.7569    6.2223 C.ar      1 RES1    0.0000
      8 H3         0.1588    6.4802    6.4931 H         1 RES1    0.0000
      9 C6        -0.0731    5.0811    5.0371 C.ar      1 RES1    0.0000
     10 C7         1.0282    5.5184    4.1737 C.2       1 RES1    0.0000
     11 H4         1.3051    4.8997    3.5365 H         1 RES1    0.0000
     12 C8         1.6586    6.6210    4.1673 C.2       1 RES1    0.0000
     13 H5         1.4321    7.2664    4.7982 H         1 RES1    0.0000
     14 C9         2.7281    6.9187    3.2099 C.2       1 RES1    0.0000
     15 C10        4.2994    8.5422    2.5584 C.3       1 RES1    0.0000
     16 H6         4.9308    7.8130    2.3879 H         1 RES1    0.0000
     17 C11        4.9598    9.7238    3.1988 C.3       1 RES1    0.0000
     18 H7         5.0233    9.5994    4.1578 H         1 RES1    0.0000
     19 H8         5.8529    9.8506    2.8419 H         1 RES1    0.0000
     20 C12        3.5370   10.6182    1.6424 C.3       1 RES1    0.0000
     21 H9         2.5808   10.8310    1.6743 H         1 RES1    0.0000
     22 C13        3.7769    9.1516    1.2856 C.3       1 RES1    0.0000
     23 H10        2.9727    8.7027    0.9494 H         1 RES1    0.0000
     24 C14        4.6363   10.2798   -0.4476 C.3       1 RES1    0.0000
     25 H11        3.9224   10.1228   -1.0896 H         1 RES1    0.0000
     26 H12        5.4441   10.5054   -0.9303 H         1 RES1    0.0000
     27 C15        4.2560   11.3846    0.5050 C.3       1 RES1    0.0000
     28 H13        3.6665   12.0440    0.0828 H         1 RES1    0.0000
     29 C16       -2.6015    1.3630    5.6010 C.2       1 RES1    0.0000
     30 C17       -3.5912    0.4547    5.0626 C.3       1 RES1    0.0000
     31 H14       -3.3575   -0.4478    5.2920 H         1 RES1    0.0000
     32 H15       -3.6230    0.5431    4.1068 H         1 RES1    0.0000
     33 H16       -4.4529    0.6652    5.4322 H         1 RES1    0.0000
     34 C18       -3.3309    3.4320    8.5067 C.2       1 RES1    0.0000
     35 C19       -4.6440    3.1878    8.9750 C.3       1 RES1    0.0000
     36 H17       -5.0998    2.6086    8.3601 H         1 RES1    0.0000
     37 H18       -5.1191    4.0193    9.0419 H         1 RES1    0.0000
     38 H19       -4.6036    2.7714    9.8384 H         1 RES1    0.0000
     39 N1         5.2562   13.1082    1.7189 N.pl3     1 RES1    0.0000
     40 O1        -3.3243    3.8856    7.2673 O.3       1 RES1    0.0000
     41 O2        -2.3149    3.3111    9.1343 O.2       1 RES1    0.0000
     42 O3        -2.6763    2.5679    5.0307 O.3       1 RES1    0.0000
     43 O4        -1.8746    1.1432    6.5043 O.2       1 RES1    0.0000
     44 O5         3.2320    8.1433    3.3931 O.3       1 RES1    0.0000
     45 O6         3.0848    6.2023    2.3274 O.2       1 RES1    0.0000
     46 O7         4.1586   10.8147    2.9009 O.3       1 RES1    0.0000
     47 O8         4.8361    9.1470    0.3552 O.3       1 RES1    0.0000
     48 O9         5.4496   11.9626    0.9415 O.3       1 RES1    0.0000
     49 O10        4.1823   13.5757    1.7953 O.2       1 RES1    0.0000
     50 O11        6.2986   13.5315    2.1761 O.2       1 RES1    0.0000
@<TRIPOS>BOND
     1    1    2 1
     2    3    1 ar
     3    4    3 ar
     4    5    4 ar
     5    6    5 1
     6    7    5 ar
     7    8    7 1
     8    9    1 ar
     9   10    9 1
    10   11   10 1
    11   12   10 2
    12   13   12 1
    13   14   12 1
    14   15   16 1
    15   17   15 1
    16   18   17 1
    17   19   17 1
    18   20   21 1
    19   22   15 1
    20   23   22 1
    21   24   25 1
    22   26   24 1
    23   27   20 1
    24   28   27 1
    25   29   30 1
    26   30   31 1
    27   32   30 1
    28   33   30 1
    29   34   35 1
    30   35   36 1
    31   37   35 1
    32   38   35 1
    33   39   48 1
    34   40    4 1
    35   41   34 2
    36   42    3 1
    37   43   29 2
    38   44   14 1
    39   45   14 2
    40   46   17 1
    41   47   22 1
    42   48   27 1
    43   49   39 2
    44   50   39 2
    45    7    9 ar
    46   15   44 1
    47   20   22 1
    48   20   46 1
    49   24   27 1
    50   24   47 1
    51   29   42 1
    52   34   40 1
@<TRIPOS>SUBSTRUCTURE
     1 RES1 1

@<TRIPOS>CRYSIN
   5.3150   11.6300   15.9900  90.0000  94.9600  90.0000   4 1

