# MOL2 file generated by ConQuest
# Please check atom types

@<TRIPOS>MOLECULE
YEJNAC01
    27    28     1
SMALL
NO_CHARGES
****
Generated from CSD

@<TRIPOS>ATOM
      1 O1        -1.1262    0.5314    1.2704 O.3       1 RES1    0.0000
      2 O2         1.8196   -0.4973    8.2138 O.2       1 RES1    0.0000
      3 O3         2.1237    0.6317    9.9975 O.2       1 RES1    0.0000
      4 N1         2.9450    1.2155    4.9462 N.2       1 RES1    0.0000
      5 N2         2.6719    1.0649    6.1484 N.2       1 RES1    0.0000
      6 N3         2.4572    0.2876    8.8854 N.pl3     1 RES1    0.0000
      7 C1        -0.1694    0.7092    2.2143 C.ar      1 RES1    0.0000
      8 C2        -0.3833    0.3698    3.5417 C.ar      1 RES1    0.0000
      9 C3         0.6159    0.5363    4.4583 C.ar      1 RES1    0.0000
     10 C4         1.8438    1.0591    4.0744 C.ar      1 RES1    0.0000
     11 C5         2.0450    1.4031    2.7470 C.ar      1 RES1    0.0000
     12 C6         1.0490    1.2349    1.8177 C.ar      1 RES1    0.0000
     13 C7         3.8134    1.1843    7.0024 C.ar      1 RES1    0.0000
     14 C8         3.6999    0.8426    8.3460 C.ar      1 RES1    0.0000
     15 C9         4.7405    0.9980    9.2294 C.ar      1 RES1    0.0000
     16 C10        5.9373    1.4954    8.7827 C.ar      1 RES1    0.0000
     17 C11        6.0780    1.8432    7.4624 C.ar      1 RES1    0.0000
     18 C12        5.0327    1.6939    6.5878 C.ar      1 RES1    0.0000
     19 H1        -1.8398    0.0585    1.6946 H         1 RES1    0.0000
     20 H2         0.5023    0.2935    5.3351 H         1 RES1    0.0000
     21 H3        -1.2649   -0.0049    3.7788 H         1 RES1    0.0000
     22 H4         5.0979    1.9117    5.6683 H         1 RES1    0.0000
     23 H5         2.9260    1.7382    2.4930 H         1 RES1    0.0000
     24 H6         6.8891    2.2187    7.1000 H         1 RES1    0.0000
     25 H7         6.6514    1.6026    9.3928 H         1 RES1    0.0000
     26 H8         1.2130    1.4746    0.8867 H         1 RES1    0.0000
     27 H9         4.6248    0.7674   10.0475 H         1 RES1    0.0000
@<TRIPOS>BOND
     1    1    7 1
     2    2    6 2
     3    3    6 2
     4    4    5 2
     5    5   13 1
     6    6   14 1
     7    7    8 ar
     8    8    9 ar
     9    9   10 ar
    10   10    4 1
    11   11   10 ar
    12   12    7 ar
    13   13   14 ar
    14   14   15 ar
    15   15   16 ar
    16   16   17 ar
    17   17   18 ar
    18   18   13 ar
    19   19    1 1
    20   20    9 1
    21   21    8 1
    22   22   18 1
    23   23   11 1
    24   24   17 1
    25   25   16 1
    26   26   12 1
    27   27   15 1
    28   11   12 ar
@<TRIPOS>SUBSTRUCTURE
     1 RES1 1

@<TRIPOS>CRYSIN
   7.1140    7.3800   10.8490  96.6800  97.4900 100.5400   2 1

