# MOL2 file generated by ConQuest
# Please check atom types

@<TRIPOS>MOLECULE
YEJTOY
    72    76     1
SMALL
USER_CHARGES
****
Generated from CSD

@<TRIPOS>ATOM
      1 O1        10.5654   10.5045   21.2593 O.2       1 RES1   -1.0000
      2 O2         8.5977    9.9226   22.1431 O.3       1 RES1    0.0000
      3 O3         6.2269    8.1267   19.4220 O.3       1 RES1    0.0000
      4 N1         9.3790   10.8908   21.4769 N.pl3     1 RES1    1.0000
      5 N2         6.5736    8.7541   22.0695 N.3       1 RES1    0.0000
      6 C1         8.8138   12.0130   21.1685 C.2       1 RES1    0.0000
      7 C2         9.6240   13.0798   20.5110 C.3       1 RES1    0.0000
      8 H1         9.1782   13.3757   19.6780 H         1 RES1    0.0000
      9 H2        10.5183   12.7259   20.2764 H         1 RES1    0.0000
     10 C3         9.7691   14.2645   21.4738 C.3       1 RES1    0.0000
     11 H3        10.3617   14.0054   22.2237 H         1 RES1    0.0000
     12 H4        10.1937   15.0222   20.9979 H         1 RES1    0.0000
     13 C4         8.4192   14.7096   22.0278 C.3       1 RES1    0.0000
     14 H5         7.8779   15.0968   21.2947 H         1 RES1    0.0000
     15 H6         8.5617   15.4152   22.7063 H         1 RES1    0.0000
     16 C5         7.6523   13.5505   22.6602 C.3       1 RES1    0.0000
     17 H7         6.7740   13.8740   22.9838 H         1 RES1    0.0000
     18 H8         8.1574   13.2076   23.4399 H         1 RES1    0.0000
     19 C6         7.4365   12.4064   21.6446 C.3       1 RES1    0.0000
     20 H9         6.9579   12.7992   20.8604 H         1 RES1    0.0000
     21 C7         6.5696   11.2429   22.1632 C.3       1 RES1    0.0000
     22 H10        6.6227   11.2391   23.1624 H         1 RES1    0.0000
     23 C8         7.1879    9.9513   21.6560 C.3       1 RES1    0.0000
     24 H11        7.1968    9.9750   20.6553 H         1 RES1    0.0000
     25 C9         5.0756   11.3544   21.7645 C.3       1 RES1    0.0000
     26 H12        4.6033   10.5822   22.1899 H         1 RES1    0.0000
     27 C10        4.4210   12.6233   22.2995 C.3       1 RES1    0.0000
     28 H13        3.4533   12.5803   22.1489 H         1 RES1    0.0000
     29 H14        4.7890   13.4029   21.8328 H         1 RES1    0.0000
     30 H15        4.5997   12.7034   23.2589 H         1 RES1    0.0000
     31 C11        4.8412   11.2461   20.2567 C.3       1 RES1    0.0000
     32 H16        5.2481   10.4200   19.9217 H         1 RES1    0.0000
     33 H17        5.2463   12.0168   19.8059 H         1 RES1    0.0000
     34 H18        3.8779   11.2320   20.0762 H         1 RES1    0.0000
     35 C12        6.3980    8.5655   23.5321 C.3       1 RES1    0.0000
     36 H19        5.5497    8.9712   23.8429 H         1 RES1    0.0000
     37 H20        7.1508    8.9676   24.0335 H         1 RES1    0.0000
     38 C13        6.3741    7.0543   23.7039 C.3       1 RES1    0.0000
     39 H21        5.4710    6.6878   23.5292 H         1 RES1    0.0000
     40 H22        6.6581    6.7932   24.6150 H         1 RES1    0.0000
     41 C14        7.3755    6.5793   22.6559 C.3       1 RES1    0.0000
     42 H23        7.1826    5.6474   22.3806 H         1 RES1    0.0000
     43 H24        8.2998    6.6263   23.0055 H         1 RES1    0.0000
     44 C15        7.1871    7.5459   21.4771 C.3       1 RES1    0.0000
     45 H25        8.0911    7.7922   21.1258 H         1 RES1    0.0000
     46 C16        6.3423    6.9756   20.2938 C.3       1 RES1    0.0000
     47 C17        4.9686    6.5496   20.8211 C.ar      1 RES1    0.0000
     48 C18        3.9611    7.4957   20.9856 C.ar      1 RES1    0.0000
     49 H26        4.1052    8.3853   20.6866 H         1 RES1    0.0000
     50 C19        2.7474    7.1643   21.5799 C.ar      1 RES1    0.0000
     51 H27        2.0708    7.8242   21.6832 H         1 RES1    0.0000
     52 C20        2.5272    5.8665   22.0213 C.ar      1 RES1    0.0000
     53 H28        1.6984    5.6308   22.4192 H         1 RES1    0.0000
     54 C21        3.5250    4.9210   21.8772 C.ar      1 RES1    0.0000
     55 H29        3.3817    4.0352   22.1899 H         1 RES1    0.0000
     56 C22        4.7324    5.2508   21.2793 C.ar      1 RES1    0.0000
     57 H30        5.4055    4.5880   21.1813 H         1 RES1    0.0000
     58 C23        7.1066    5.8661   19.5419 C.ar      1 RES1    0.0000
     59 C24        6.4281    4.9160   18.7782 C.ar      1 RES1    0.0000
     60 H31        5.4781    4.9170   18.7731 H         1 RES1    0.0000
     61 C25        7.1083    3.9686   18.0234 C.ar      1 RES1    0.0000
     62 H32        6.6218    3.3321   17.5136 H         1 RES1    0.0000
     63 C26        8.4980    3.9493   18.0135 C.ar      1 RES1    0.0000
     64 H33        8.9677    3.2966   17.5087 H         1 RES1    0.0000
     65 C27        9.1835    4.8923   18.7495 C.ar      1 RES1    0.0000
     66 H34       10.1335    4.8910   18.7418 H         1 RES1    0.0000
     67 C28        8.5077    5.8446   19.5011 C.ar      1 RES1    0.0000
     68 H35        9.0013    6.4902   19.9941 H         1 RES1    0.0000
     69 C29        5.4728    7.9480   18.2244 C.3       1 RES1    0.0000
     70 H36        4.5670    7.6526   18.4498 H         1 RES1    0.0000
     71 H37        5.9071    7.2714   17.6632 H         1 RES1    0.0000
     72 H38        5.4277    8.7972   17.7380 H         1 RES1    0.0000
@<TRIPOS>BOND
     1    1    4 1
     2    2    4 1
     3    3   46 1
     4    4    6 2
     5    5   23 1
     6    6    7 1
     7    7    8 1
     8    9    7 1
     9   10    7 1
    10   11   10 1
    11   12   10 1
    12   13   10 1
    13   14   13 1
    14   15   13 1
    15   16   13 1
    16   17   16 1
    17   18   16 1
    18   19    6 1
    19   20   19 1
    20   21   19 1
    21   22   21 1
    22   23    2 1
    23   24   23 1
    24   25   21 1
    25   26   25 1
    26   27   25 1
    27   28   27 1
    28   29   27 1
    29   30   27 1
    30   31   25 1
    31   32   31 1
    32   33   31 1
    33   34   31 1
    34   35    5 1
    35   36   35 1
    36   37   35 1
    37   38   35 1
    38   39   38 1
    39   40   38 1
    40   41   38 1
    41   42   41 1
    42   43   41 1
    43   44    5 1
    44   45   44 1
    45   46   44 1
    46   47   46 1
    47   48   47 ar
    48   49   48 1
    49   50   48 ar
    50   51   50 1
    51   52   50 ar
    52   53   52 1
    53   54   52 ar
    54   55   54 1
    55   56   47 ar
    56   57   56 1
    57   58   46 1
    58   59   58 ar
    59   60   59 1
    60   61   59 ar
    61   62   61 1
    62   63   61 ar
    63   64   63 1
    64   65   63 ar
    65   66   65 1
    66   67   58 ar
    67   68   67 1
    68   69    3 1
    69   70   69 1
    70   71   69 1
    71   72   69 1
    72   16   19 1
    73   21   23 1
    74   41   44 1
    75   54   56 ar
    76   65   67 ar
@<TRIPOS>SUBSTRUCTURE
     1 RES1 1

@<TRIPOS>CRYSIN
   8.8456   11.8369   24.1300  90.0000  90.0000  90.0000  19 1

