# MOL2 file generated by ConQuest
# Please check atom types

@<TRIPOS>MOLECULE
YEKQAG01
    19    19     1
SMALL
NO_CHARGES
****
Generated from CSD

@<TRIPOS>ATOM
      1 N1        -3.0826    2.5509    9.1542 N.ar      1 RES1    0.0000
      2 C1        -3.3578    2.7410    7.8817 C.ar      1 RES1    0.0000
      3 C2        -4.4909    2.2220    7.2286 C.ar      1 RES1    0.0000
      4 N2        -5.3372    1.4966    8.0213 N.pl3     1 RES1    0.0000
      5 C3        -5.0953    1.2612    9.3499 C.ar      1 RES1    0.0000
      6 C4        -3.9141    1.8241    9.8660 C.ar      1 RES1    0.0000
      7 N3        -3.4938    1.5926   11.2425 N.pl3     1 RES1    0.0000
      8 O1        -4.2014    0.8442   11.9279 O.2       1 RES1    0.0000
      9 O2        -2.4866    2.1350   11.6562 O.2       1 RES1    0.0000
     10 N4        -2.3594    3.5001    7.1518 N.pl3     1 RES1    0.0000
     11 O3        -2.3444    3.4061    5.9363 O.2       1 RES1    0.0000
     12 O4        -1.5726    4.1976    7.7628 O.2       1 RES1    0.0000
     13 N5        -5.9997    0.5135    9.9535 N.3       1 RES1    0.0000
     14 H1        -6.7534    0.2852    9.4440 H         1 RES1    0.0000
     15 H2        -5.8833    0.3597   10.8412 H         1 RES1    0.0000
     16 N6        -4.8248    2.3508    5.9701 N.3       1 RES1    0.0000
     17 H3        -5.6223    2.0169    5.7001 H         1 RES1    0.0000
     18 H4        -4.2936    2.7664    5.4119 H         1 RES1    0.0000
     19 O5        -6.3957    0.9807    7.4532 O.2       1 RES1    0.0000
@<TRIPOS>BOND
     1    1    2 ar
     2    2    3 ar
     3    3    4 ar
     4    4    5 ar
     5    5    6 ar
     6    6    1 ar
     7    7    6 1
     8    8    7 2
     9    9    7 2
    10   10    2 1
    11   11   10 2
    12   12   10 2
    13   13    5 1
    14   14   13 1
    15   15   13 1
    16   16    3 1
    17   17   16 1
    18   18   16 1
    19   19    4 1
@<TRIPOS>SUBSTRUCTURE
     1 RES1 1

@<TRIPOS>CRYSIN
   5.7090   15.8440    8.4160  90.0000 101.1400  90.0000 231 1

