# MOL2 file generated by ConQuest
# Please check atom types

@<TRIPOS>MOLECULE
YELNAE
    31    32     1
SMALL
NO_CHARGES
****
Generated from CSD

@<TRIPOS>ATOM
      1 C1         3.6171    7.5950    1.4029 C.3       1 RES1    0.0000
      2 C2         3.0747    6.3474    0.7067 C.3       1 RES1    0.0000
      3 C3         3.4097    6.4529   -0.7491 C.3       1 RES1    0.0000
      4 C4         2.7657    7.7018   -1.3437 C.3       1 RES1    0.0000
      5 C5         3.2292    8.9011   -0.5311 C.3       1 RES1    0.0000
      6 O1         2.9552    8.7271    0.8506 O.3       1 RES1    0.0000
      7 N1         3.4650    7.6154    2.8312 N.am      1 RES1    0.0000
      8 C6         4.3856    8.3485    3.5443 C.2       1 RES1    0.0000
      9 O2         5.3598    8.8262    3.0047 O.2       1 RES1    0.0000
     10 C7         4.1067    8.5543    5.0043 C.3       1 RES1    0.0000
     11 C8         2.2875    7.0246    3.4300 C.ar      1 RES1    0.0000
     12 C9         1.0352    7.5595    3.1994 C.ar      1 RES1    0.0000
     13 C10       -0.0829    7.0068    3.7813 C.ar      1 RES1    0.0000
     14 C11        0.0870    5.9154    4.5981 C.ar      1 RES1    0.0000
     15 C12        1.3174    5.3590    4.8541 C.ar      1 RES1    0.0000
     16 C13        2.4250    5.9409    4.2426 C.ar      1 RES1    0.0000
     17 N2        -1.1247    5.3221    5.1863 N.pl3     1 RES1    0.0000
     18 O3        -0.9441    4.4124    6.0116 O.2       1 RES1    0.0000
     19 O4        -2.2152    5.6918    4.8308 O.2       1 RES1    0.0000
     20 O5         3.7009    5.1836    1.2506 O.3       1 RES1    0.0000
     21 C14        2.9169    4.0770    1.3966 C.2       1 RES1    0.0000
     22 O6         1.7289    4.0923    1.2230 O.2       1 RES1    0.0000
     23 C15        3.7440    2.9094    1.8409 C.3       1 RES1    0.0000
     24 O7         3.0153    5.2548   -1.4156 O.3       1 RES1    0.0000
     25 C16        3.7399    4.9384   -2.5371 C.2       1 RES1    0.0000
     26 O8         4.6263    5.6118   -2.9476 O.2       1 RES1    0.0000
     27 C17        3.2439    3.6654   -3.1126 C.3       1 RES1    0.0000
     28 O9         1.3450    7.6103   -1.2019 O.3       1 RES1    0.0000
     29 C18        0.6400    7.1478   -2.2641 C.2       1 RES1    0.0000
     30 O10        1.1385    6.7362   -3.2544 O.2       1 RES1    0.0000
     31 C19       -0.8457    7.2469   -1.9869 C.3       1 RES1    0.0000
@<TRIPOS>BOND
     1    1    2 1
     2    2    3 1
     3    3    4 1
     4    4    5 1
     5    5    6 1
     6    6    1 1
     7    7    1 1
     8    8    7 1
     9    9    8 2
    10   10    8 1
    11   11    7 1
    12   12   11 ar
    13   13   12 ar
    14   14   13 ar
    15   15   14 ar
    16   16   11 ar
    17   17   14 1
    18   18   17 2
    19   19   17 2
    20   20    2 1
    21   21   20 1
    22   22   21 2
    23   23   21 1
    24   24    3 1
    25   25   24 1
    26   26   25 2
    27   27   25 1
    28   28    4 1
    29   29   28 1
    30   30   29 2
    31   31   29 1
    32   15   16 ar
@<TRIPOS>SUBSTRUCTURE
     1 RES1 1

@<TRIPOS>CRYSIN
   8.1320   12.7050   21.1600  90.0000  90.0000  90.0000  19 1

