# MOL2 file generated by ConQuest
# Please check atom types

@<TRIPOS>MOLECULE
YELPUD
    31    32     1
SMALL
NO_CHARGES
****
Generated from CSD

@<TRIPOS>ATOM
      1 O1         3.8141    7.5267    1.8221 O.3       1 RES1    0.0000
      2 O2         7.7175   11.4764    3.5394 O.3       1 RES1    0.0000
      3 O3         5.2106   10.8512    4.1098 O.2       1 RES1    0.0000
      4 O4         8.0905    9.3020    3.1756 O.2       1 RES1    0.0000
      5 N1         5.0285    7.3745    1.1069 N.2       1 RES1    0.0000
      6 C1         5.2457    8.9654    2.7004 C.2       1 RES1    0.0000
      7 C2         5.8404   10.0785    3.4280 C.2       1 RES1    0.0000
      8 C3         7.3639   10.2315    3.3384 C.2       1 RES1    0.0000
      9 C4         3.9660    8.4846    2.7562 C.2       1 RES1    0.0000
     10 O5        -0.6225    9.7879    6.9511 O.2       1 RES1    0.0000
     11 C5         5.8422    8.2198    1.6392 C.2       1 RES1    0.0000
     12 H1         6.7229    8.3314    1.3622 H         1 RES1    0.0000
     13 C6         2.7637    8.7446    3.5563 C.ar      1 RES1    0.0000
     14 C7         1.7090    9.4340    5.6059 C.ar      1 RES1    0.0000
     15 H2         1.7602    9.7595    6.4759 H         1 RES1    0.0000
     16 C8         2.8549    9.2218    4.8592 C.ar      1 RES1    0.0000
     17 H3         3.6885    9.3985    5.2308 H         1 RES1    0.0000
     18 C9         0.4919    9.1513    5.0277 C.ar      1 RES1    0.0000
     19 C10        1.5172    8.4592    3.0085 C.ar      1 RES1    0.0000
     20 H4         1.4556    8.1262    2.1427 H         1 RES1    0.0000
     21 C11        0.3709    8.6715    3.7495 C.ar      1 RES1    0.0000
     22 H5        -0.4667    8.4916    3.3885 H         1 RES1    0.0000
     23 C12        9.1450   11.7762    3.5168 C.3       1 RES1    0.0000
     24 H6         9.4462   11.8864    2.6016 H         1 RES1    0.0000
     25 H7         9.6433   11.0465    3.9166 H         1 RES1    0.0000
     26 C13        9.3747   13.0084    4.2698 C.3       1 RES1    0.0000
     27 H8        10.3120   13.2156    4.2663 H         1 RES1    0.0000
     28 H9         9.0755   12.8909    5.1744 H         1 RES1    0.0000
     29 H10        8.8864   13.7280    3.8623 H         1 RES1    0.0000
     30 N2        -0.7249    9.3461    5.8202 N.pl3     1 RES1    0.0000
     31 O6        -1.7862    9.0142    5.3189 O.2       1 RES1    0.0000
@<TRIPOS>BOND
     1    1    5 1
     2    2    8 1
     3    3    7 2
     4    4    8 2
     5    5   11 2
     6    6    7 1
     7    7    8 1
     8    9    1 1
     9   10   30 2
    10   11    6 1
    11   12   11 1
    12   13    9 1
    13   14   15 1
    14   16   13 ar
    15   17   16 1
    16   18   14 ar
    17   19   13 ar
    18   20   19 1
    19   21   18 ar
    20   22   21 1
    21   23    2 1
    22   24   23 1
    23   25   23 1
    24   26   23 1
    25   27   26 1
    26   28   26 1
    27   29   26 1
    28   30   18 1
    29   31   30 2
    30    6    9 2
    31   14   16 ar
    32   19   21 ar
@<TRIPOS>SUBSTRUCTURE
     1 RES1 1

@<TRIPOS>CRYSIN
  12.6326   14.5578    7.3585  90.0000 106.6350  90.0000  14 1

