# MOL2 file generated by ConQuest
# Please check atom types

@<TRIPOS>MOLECULE
YELPOU
    24    26     1
SMALL
NO_CHARGES
****
Generated from CSD

@<TRIPOS>ATOM
      1 O1         7.3500    4.3455    8.9132 O.2       1 RES1    0.0000
      2 O2         9.1707   -0.9691    5.5636 O.3       1 RES1    0.0000
      3 N1         6.7385    2.6181    7.7618 N.3       1 RES1    0.0000
      4 N2         6.8711    3.2039    8.9634 N.2       1 RES1    0.0000
      5 N3         8.7026    0.2650    5.0327 N.2       1 RES1    0.0000
      6 C1         6.4726    1.1642    7.8441 C.3       1 RES1    0.0000
      7 C2         7.7269    0.4431    7.2853 C.3       1 RES1    0.0000
      8 C3         7.9751    0.9068    5.8845 C.2       1 RES1    0.0000
      9 C4         7.3565    2.2133    5.3990 C.3       1 RES1    0.0000
     10 C5         7.3003    3.2488    6.5602 C.3       1 RES1    0.0000
     11 C6         8.0626    2.7965    4.1883 C.3       1 RES1    0.0000
     12 C7         8.9455    0.7400    8.1503 C.3       1 RES1    0.0000
     13 C8         6.5000    4.4812    6.1421 C.ar      1 RES1    0.0000
     14 C9         7.1791    5.6337    5.8138 C.ar      1 RES1    0.0000
     15 C10        6.4642    6.7516    5.3331 C.ar      1 RES1    0.0000
     16 C11        5.1142    6.6798    5.1998 C.ar      1 RES1    0.0000
     17 C12        4.4262    5.5551    5.5430 C.ar      1 RES1    0.0000
     18 C13        5.1371    4.4269    6.0047 C.ar      1 RES1    0.0000
     19 C14        5.1515    0.7841    7.2186 C.ar      1 RES1    0.0000
     20 C15        4.9738   -0.2502    6.3232 C.ar      1 RES1    0.0000
     21 C16        3.7460   -0.5721    5.8220 C.ar      1 RES1    0.0000
     22 C17        2.6378    0.1509    6.1998 C.ar      1 RES1    0.0000
     23 C18        2.7746    1.1744    7.0968 C.ar      1 RES1    0.0000
     24 C19        4.0012    1.4896    7.6096 C.ar      1 RES1    0.0000
@<TRIPOS>BOND
     1    1    4 2
     2    2    5 1
     3    3    4 1
     4    5    8 2
     5    6    3 1
     6    7    6 1
     7    8    7 1
     8    9    8 1
     9   10    3 1
    10   11    9 1
    11   12    7 1
    12   13   10 1
    13   14   13 ar
    14   15   14 ar
    15   16   15 ar
    16   17   16 ar
    17   18   13 ar
    18   19    6 1
    19   20   19 ar
    20   21   20 ar
    21   22   21 ar
    22   23   22 ar
    23   24   19 ar
    24    9   10 1
    25   17   18 ar
    26   23   24 ar
@<TRIPOS>SUBSTRUCTURE
     1 RES1 1

@<TRIPOS>CRYSIN
   9.8770   10.5870    8.3090  96.9600  93.2100  94.1300   2 1

