# MOL2 file generated by ConQuest
# Please check atom types

@<TRIPOS>MOLECULE
YELQOW
    16    16     1
SMALL
NO_CHARGES
****
Generated from CSD

@<TRIPOS>ATOM
      1 N1         0.2632    2.1036    2.6840 N.pl3     1 RES1    0.0000
      2 O1        -0.3074    2.5775   -0.7976 O.3       1 RES1    0.0000
      3 O2        -0.1390    1.2654    3.6486 O.2       1 RES1    0.0000
      4 C1        -0.2270    1.9237    1.4362 C.ar      1 RES1    0.0000
      5 C2         0.1996    2.7854    0.4321 C.ar      1 RES1    0.0000
      6 C3         1.1460    3.0717    2.9806 C.ar      1 RES1    0.0000
      7 H1         1.4657    3.1595    3.8498 H         1 RES1    0.0000
      8 C4         1.1012    3.7951    0.7184 C.ar      1 RES1    0.0000
      9 H2         1.3849    4.3770    0.0513 H         1 RES1    0.0000
     10 C5         1.5721    3.9264    2.0076 C.ar      1 RES1    0.0000
     11 H3         2.1811    4.5982    2.2133 H         1 RES1    0.0000
     12 C6        -1.1847    0.8175    1.2135 C.3       1 RES1    0.0000
     13 H4        -0.7318   -0.0227    1.3125 H         1 RES1    0.0000
     14 H5        -1.5486    0.8826    0.3278 H         1 RES1    0.0000
     15 H6        -1.8960    0.8754    1.8554 H         1 RES1    0.0000
     16 H7         0.1248    3.1419   -1.5014 H         1 RES1    0.0000
@<TRIPOS>BOND
     1    1    3 1
     2    2    5 1
     3    4    1 ar
     4    5    4 ar
     5    6    1 ar
     6    7    6 1
     7    8    5 ar
     8    9    8 1
     9   10    6 ar
    10   11   10 1
    11   12    4 1
    12   13   12 1
    13   14   12 1
    14   15   12 1
    15   16    2 1
    16    8   10 ar
@<TRIPOS>SUBSTRUCTURE
     1 RES1 1

@<TRIPOS>CRYSIN
   4.6258   10.3353   12.6770  90.0000  99.2700  90.0000  14 1

