# MOL2 file generated by ConQuest
# Please check atom types

@<TRIPOS>MOLECULE
YELQEO
    31    32     1
SMALL
NO_CHARGES
****
Generated from CSD

@<TRIPOS>ATOM
      1 O1         4.6635    7.5405   10.7452 O.3       1 RES1    0.0000
      2 O2         2.5174   10.2519    7.8749 O.2       1 RES1    0.0000
      3 O3         2.7707   11.0056    9.9737 O.3       1 RES1    0.0000
      4 O4         4.2881    6.7285    6.6469 O.2       1 RES1    0.0000
      5 N1         3.9120    8.7233   10.6974 N.2       1 RES1    0.0000
      6 O5         6.1971   11.8868    2.5400 O.2       1 RES1    0.0000
      7 N2         6.2126   12.0795    3.7480 N.pl3     1 RES1    0.0000
      8 O6         6.5772   13.1248    4.2546 O.2       1 RES1    0.0000
      9 C1         4.9195    8.9654    6.2654 C.ar      1 RES1    0.0000
     10 C2         3.7640    8.9828    9.4224 C.2       1 RES1    0.0000
     11 C3         4.3792    7.9976    8.5974 C.2       1 RES1    0.0000
     12 C4         2.9480   10.1524    8.9872 C.2       1 RES1    0.0000
     13 C5         4.7122    8.8807    4.8890 C.ar      1 RES1    0.0000
     14 H1         4.2859    8.1349    4.5310 H         1 RES1    0.0000
     15 C6         5.7668   10.9838    4.6210 C.ar      1 RES1    0.0000
     16 C7         6.0025   11.0920    5.9751 C.ar      1 RES1    0.0000
     17 H2         6.4410   11.8339    6.3248 H         1 RES1    0.0000
     18 C8         5.5705   10.0717    6.7986 C.ar      1 RES1    0.0000
     19 H3         5.7151   10.1244    7.7162 H         1 RES1    0.0000
     20 C9         4.4862    7.8258    7.1206 C.2       1 RES1    0.0000
     21 C10        5.1339    9.8938    4.0545 C.ar      1 RES1    0.0000
     22 H4         4.9960    9.8444    3.1365 H         1 RES1    0.0000
     23 C11        4.9083    7.1393    9.4928 C.2       1 RES1    0.0000
     24 H5         5.3806    6.3705    9.2689 H         1 RES1    0.0000
     25 C12        1.9898   12.2050    9.6796 C.3       1 RES1    0.0000
     26 H6         1.1377   11.9661    9.2824 H         1 RES1    0.0000
     27 H7         2.4693   12.7788    9.0621 H         1 RES1    0.0000
     28 C13        1.7794   12.9033   10.9868 C.3       1 RES1    0.0000
     29 H8         1.2679   13.7031   10.8434 H         1 RES1    0.0000
     30 H9         2.6308   13.1327   11.3679 H         1 RES1    0.0000
     31 H10        1.3059   12.3235   11.5872 H         1 RES1    0.0000
@<TRIPOS>BOND
     1    1    5 1
     2    2   12 2
     3    3   12 1
     4    4   20 2
     5    5   10 2
     6    6    7 2
     7    7    8 2
     8    9   13 ar
     9   10   11 1
    10   11   20 1
    11   12   10 1
    12   13   14 1
    13   15    7 1
    14   16   15 ar
    15   17   16 1
    16   18    9 ar
    17   19   18 1
    18   20    9 1
    19   21   13 ar
    20   22   21 1
    21   23    1 1
    22   24   23 1
    23   25    3 1
    24   26   25 1
    25   27   25 1
    26   28   25 1
    27   29   28 1
    28   30   28 1
    29   31   28 1
    30   11   23 2
    31   15   21 ar
    32   16   18 ar
@<TRIPOS>SUBSTRUCTURE
     1 RES1 1

@<TRIPOS>CRYSIN
   7.3487   17.1804   10.4508  90.0000  98.1670  90.0000  14 1

