# MOL2 file generated by ConQuest
# Please check atom types

@<TRIPOS>MOLECULE
YELSIS
    62    67     1
SMALL
NO_CHARGES
****
Generated from CSD

@<TRIPOS>ATOM
      1 O1         4.9037    4.4822   31.8655 O.3       1 RES1    0.0000
      2 O2         5.3009    4.3709   34.0966 O.3       1 RES1    0.0000
      3 O3         2.1484    6.3686   26.9579 O.2       1 RES1    0.0000
      4 O4         4.9330    6.0735   26.1330 O.3       1 RES1    0.0000
      5 O5         6.8782    7.5988   29.8661 O.3       1 RES1    0.0000
      6 O6         4.9695    4.1463   27.2686 O.2       1 RES1    0.0000
      7 O7         5.5843    2.7245   25.1152 O.3       1 RES1    0.0000
      8 O8         5.5872    1.0209   23.6352 O.2       1 RES1    0.0000
      9 N1         6.1203    6.5911   30.5693 N.2       1 RES1    0.0000
     10 C1         3.8324    4.5626   31.0532 C.ar      1 RES1    0.0000
     11 C2         2.5950    3.9591   31.2746 C.ar      1 RES1    0.0000
     12 H1         2.4597    3.4657   32.0520 H         1 RES1    0.0000
     13 C3         1.6117    4.0758   30.4009 C.ar      1 RES1    0.0000
     14 H2         0.8151    3.6155   30.5365 H         1 RES1    0.0000
     15 C4         1.7534    4.8665   29.2951 C.ar      1 RES1    0.0000
     16 H3         1.0348    4.9810   28.7136 H         1 RES1    0.0000
     17 C5         2.9714    5.5041   29.0248 C.ar      1 RES1    0.0000
     18 C6         3.0845    6.2442   27.7389 C.2       1 RES1    0.0000
     19 C7         4.4650    6.8422   27.3138 C.3       1 RES1    0.0000
     20 C8         4.4035    8.2782   26.7730 C.3       1 RES1    0.0000
     21 H4         3.8739    8.2970   25.9597 H         1 RES1    0.0000
     22 H5         3.9741    8.8531   27.4271 H         1 RES1    0.0000
     23 C9         5.7997    8.7936   26.4822 C.3       1 RES1    0.0000
     24 H6         5.7289    9.6868   26.1104 H         1 RES1    0.0000
     25 H7         6.2033    8.2265   25.8061 H         1 RES1    0.0000
     26 C10        6.7322    8.8432   27.7000 C.3       1 RES1    0.0000
     27 H8         7.6547    8.7529   27.4150 H         1 RES1    0.0000
     28 H9         6.6356    9.6934   28.1562 H         1 RES1    0.0000
     29 C11        6.3751    7.7320   28.6166 C.2       1 RES1    0.0000
     30 C12        5.3904    6.8378   28.4427 C.2       1 RES1    0.0000
     31 C13        5.2143    6.1891   29.6850 C.2       1 RES1    0.0000
     32 C14        4.0356    5.3852   29.9317 C.ar      1 RES1    0.0000
     33 C15        5.1864    4.7619   26.2577 C.2       1 RES1    0.0000
     34 C16        5.6988    4.1815   24.9724 C.3       1 RES1    0.0000
     35 C17        7.1788    4.4370   24.6503 C.3       1 RES1    0.0000
     36 H10        7.7649    3.9679   25.2638 H         1 RES1    0.0000
     37 H11        7.3892    5.3841   24.6642 H         1 RES1    0.0000
     38 C18        7.2632    3.8467   23.2035 C.3       1 RES1    0.0000
     39 H12        7.5509    4.5218   22.5702 H         1 RES1    0.0000
     40 H13        7.8808    3.1001   23.1697 H         1 RES1    0.0000
     41 C19        5.8090    3.3798   22.8980 C.3       1 RES1    0.0000
     42 C20        5.6308    2.2169   23.8449 C.2       1 RES1    0.0000
     43 C21        4.9631    4.4668   23.6437 C.3       1 RES1    0.0000
     44 C22        5.1256    5.8819   23.0760 C.3       1 RES1    0.0000
     45 H14        4.6954    5.9347   22.2207 H         1 RES1    0.0000
     46 H15        6.0595    6.0823   22.9799 H         1 RES1    0.0000
     47 H16        4.7226    6.5151   23.6759 H         1 RES1    0.0000
     48 C23        3.4609    4.0978   23.7115 C.3       1 RES1    0.0000
     49 H17        3.0838    4.1276   22.8293 H         1 RES1    0.0000
     50 H18        3.0029    4.7233   24.2755 H         1 RES1    0.0000
     51 H19        3.3657    3.2124   24.0706 H         1 RES1    0.0000
     52 C24        5.5227    3.0516   21.4590 C.3       1 RES1    0.0000
     53 H20        4.5881    2.8622   21.3529 H         1 RES1    0.0000
     54 H21        6.0366    2.2840   21.1962 H         1 RES1    0.0000
     55 H22        5.7618    3.7994   20.9070 H         1 RES1    0.0000
     56 C25        4.8880    3.7498   33.1186 C.3       1 RES1    0.0000
     57 H23        3.9733    3.4712   33.2963 H         1 RES1    0.0000
     58 H24        5.4204    2.9481   33.0131 H         1 RES1    0.0000
     59 C26        6.5819    4.6165   33.8989 C.3       1 RES1    0.0000
     60 H25        6.6771    5.3863   33.3355 H         1 RES1    0.0000
     61 H26        6.9920    3.8577   33.4771 H         1 RES1    0.0000
     62 H27        7.0092    4.7828   34.7426 H         1 RES1    0.0000
@<TRIPOS>BOND
     1    1   10 1
     2    2   56 1
     3    3   18 2
     4    4   19 1
     5    5    9 1
     6    6   33 2
     7    7   34 1
     8    8   42 2
     9    9   31 2
    10   10   11 ar
    11   11   12 1
    12   13   11 ar
    13   14   13 1
    14   15   13 ar
    15   16   15 1
    16   17   15 ar
    17   18   17 1
    18   19   18 1
    19   20   19 1
    20   21   20 1
    21   22   20 1
    22   23   20 1
    23   24   23 1
    24   25   23 1
    25   26   23 1
    26   27   26 1
    27   28   26 1
    28   29    5 1
    29   30   19 1
    30   31   30 1
    31   32   10 ar
    32   33    4 1
    33   34   33 1
    34   35   34 1
    35   36   35 1
    36   37   35 1
    37   38   35 1
    38   39   38 1
    39   40   38 1
    40   41   38 1
    41   42    7 1
    42   43   34 1
    43   44   43 1
    44   45   44 1
    45   46   44 1
    46   47   44 1
    47   48   43 1
    48   49   48 1
    49   50   48 1
    50   51   48 1
    51   52   41 1
    52   53   52 1
    53   54   52 1
    54   55   52 1
    55   56    1 1
    56   57   56 1
    57   58   56 1
    58   59    2 1
    59   60   59 1
    60   61   59 1
    61   62   59 1
    62   17   32 ar
    63   26   29 1
    64   29   30 2
    65   31   32 1
    66   41   42 1
    67   41   43 1
@<TRIPOS>SUBSTRUCTURE
     1 RES1 1

@<TRIPOS>CRYSIN
   7.1566   11.0127   30.1297  90.0000  90.0000  90.0000  19 1

