# MOL2 file generated by ConQuest
# Please check atom types

@<TRIPOS>MOLECULE
YELSOY
    64    69     1
SMALL
NO_CHARGES
****
Generated from CSD

@<TRIPOS>ATOM
      1 O1        -7.1694   -7.7904   -0.5499 O.3       1 RES1    0.0000
      2 O2        -9.4115   -5.4345   -5.3436 O.2       1 RES1    0.0000
      3 O3        -5.5682   -9.7220   -3.7747 O.3       1 RES1    0.0000
      4 O4        -9.4801   -4.7990   -2.6665 O.3       1 RES1    0.0000
      5 O5        -7.3702   -4.3402   -3.3458 O.2       1 RES1    0.0000
      6 O6       -10.1886   -2.3846   -2.2992 O.3       1 RES1    0.0000
      7 O7       -11.3601   -0.7478   -1.3014 O.2       1 RES1    0.0000
      8 N1        -6.5868   -8.2917   -1.7451 N.2       1 RES1    0.0000
      9 C1        -7.3130   -7.7675   -2.7068 C.2       1 RES1    0.0000
     10 C2        -8.3565   -6.9290   -2.2164 C.2       1 RES1    0.0000
     11 C3        -9.3397   -6.2030   -3.0741 C.3       1 RES1    0.0000
     12 C4        -8.9204   -6.2317   -4.5708 C.2       1 RES1    0.0000
     13 C5        -7.9674   -7.2789   -5.0464 C.ar      1 RES1    0.0000
     14 C6        -7.8717   -7.4922   -6.4263 C.ar      1 RES1    0.0000
     15 C7        -6.9738   -8.4167   -6.9082 C.ar      1 RES1    0.0000
     16 C8        -6.1550   -9.1381   -6.0654 C.ar      1 RES1    0.0000
     17 C9        -6.2778   -8.9879   -4.6855 C.ar      1 RES1    0.0000
     18 C10       -7.1569   -8.0347   -4.1526 C.ar      1 RES1    0.0000
     19 C11       -8.2348   -6.9887   -0.8726 C.2       1 RES1    0.0000
     20 C12       -9.0296   -6.4656    0.2675 C.3       1 RES1    0.0000
     21 C13       -4.6693  -10.7176   -4.2630 C.3       1 RES1    0.0000
     22 C14      -10.7432   -6.7765   -2.9956 C.ar      1 RES1    0.0000
     23 C15      -10.9304   -8.1517   -2.8958 C.ar      1 RES1    0.0000
     24 C16      -12.2008   -8.7000   -2.8469 C.ar      1 RES1    0.0000
     25 C17      -13.3015   -7.8868   -2.9149 C.ar      1 RES1    0.0000
     26 C18      -13.1423   -6.5276   -3.0529 C.ar      1 RES1    0.0000
     27 C19      -11.8720   -5.9575   -3.1059 C.ar      1 RES1    0.0000
     28 C20       -8.4439   -3.9801   -2.9382 C.2       1 RES1    0.0000
     29 C21       -8.7810   -2.5268   -2.6474 C.3       1 RES1    0.0000
     30 C22       -8.5562   -1.5852   -3.8363 C.3       1 RES1    0.0000
     31 C23       -8.6707   -0.1721   -3.1463 C.3       1 RES1    0.0000
     32 C24       -8.9089   -0.5437   -1.6517 C.3       1 RES1    0.0000
     33 C25       -8.0621   -1.8409   -1.4712 C.3       1 RES1    0.0000
     34 C26      -10.2958   -1.1619   -1.6729 C.2       1 RES1    0.0000
     35 C27       -8.7518    0.5896   -0.6560 C.3       1 RES1    0.0000
     36 C28       -8.3118   -2.5303   -0.1274 C.3       1 RES1    0.0000
     37 C29       -6.5628   -1.6425   -1.6687 C.3       1 RES1    0.0000
     38 H1        -8.4824   -6.9669   -7.0377 H         1 RES1    0.0000
     39 H2        -6.8646   -8.5176   -7.9039 H         1 RES1    0.0000
     40 H3        -5.4767   -9.8126   -6.4136 H         1 RES1    0.0000
     41 H4        -9.7725   -5.8795   -0.0616 H         1 RES1    0.0000
     42 H5        -8.4637   -5.9334    0.8874 H         1 RES1    0.0000
     43 H6        -9.4364   -7.2204    0.7791 H         1 RES1    0.0000
     44 H7        -5.1573  -11.4092   -4.7789 H         1 RES1    0.0000
     45 H8        -4.2178  -11.1764   -3.4860 H         1 RES1    0.0000
     46 H9        -3.9639  -10.3196   -4.8341 H         1 RES1    0.0000
     47 H10      -10.1366   -8.7677   -2.8427 H         1 RES1    0.0000
     48 H11      -12.3079   -9.6830   -2.7726 H         1 RES1    0.0000
     49 H12      -14.2181   -8.2985   -2.9021 H         1 RES1    0.0000
     50 H13      -13.9341   -5.9288   -3.0529 H         1 RES1    0.0000
     51 H14      -11.7503   -4.9505   -3.2291 H         1 RES1    0.0000
     52 H15       -9.2377   -1.7228   -4.5729 H         1 RES1    0.0000
     53 H16       -7.6490   -1.7262   -4.2736 H         1 RES1    0.0000
     54 H17       -9.4458    0.3544   -3.5221 H         1 RES1    0.0000
     55 H18       -7.8498    0.3751   -3.2673 H         1 RES1    0.0000
     56 H19       -7.8633    0.9807   -0.6560 H         1 RES1    0.0000
     57 H20       -8.9516    0.2478    0.2887 H         1 RES1    0.0000
     58 H21       -9.4364    1.3168   -0.8237 H         1 RES1    0.0000
     59 H22       -9.3157   -2.6496    0.0149 H         1 RES1    0.0000
     60 H23       -7.9767   -1.9912    0.6369 H         1 RES1    0.0000
     61 H24       -7.9050   -3.4307   -0.0934 H         1 RES1    0.0000
     62 H25       -6.0770   -2.5234   -1.6793 H         1 RES1    0.0000
     63 H26       -6.1560   -1.0816   -0.9532 H         1 RES1    0.0000
     64 H27       -6.3756   -1.1952   -2.5497 H         1 RES1    0.0000
@<TRIPOS>BOND
     1    1    8 1
     2    2   12 2
     3    3   17 1
     4    4   11 1
     5    5   28 2
     6    6   29 1
     7    7   34 2
     8    8    9 2
     9    9   10 1
    10   10   11 1
    11   11   12 1
    12   12   13 1
    13   13   14 ar
    14   14   15 ar
    15   15   16 ar
    16   16   17 ar
    17   17   18 ar
    18   18    9 1
    19   19    1 1
    20   20   19 1
    21   21    3 1
    22   22   11 1
    23   23   22 ar
    24   24   23 ar
    25   25   24 ar
    26   26   25 ar
    27   27   22 ar
    28   28    4 1
    29   29   28 1
    30   30   29 1
    31   31   30 1
    32   32   31 1
    33   33   29 1
    34   34    6 1
    35   35   32 1
    36   36   33 1
    37   37   33 1
    38   38   14 1
    39   39   15 1
    40   40   16 1
    41   41   20 1
    42   42   20 1
    43   43   20 1
    44   44   21 1
    45   45   21 1
    46   46   21 1
    47   47   23 1
    48   48   24 1
    49   49   25 1
    50   50   26 1
    51   51   27 1
    52   52   30 1
    53   53   30 1
    54   54   31 1
    55   55   31 1
    56   56   35 1
    57   57   35 1
    58   58   35 1
    59   59   36 1
    60   60   36 1
    61   61   36 1
    62   62   37 1
    63   63   37 1
    64   64   37 1
    65   10   19 2
    66   13   18 ar
    67   26   27 ar
    68   32   33 1
    69   32   34 1
@<TRIPOS>SUBSTRUCTURE
     1 RES1 1

@<TRIPOS>CRYSIN
  10.4040   11.4700   21.2300  90.0000  90.0000  90.0000  19 1

