# MOL2 file generated by ConQuest
# Please check atom types

@<TRIPOS>MOLECULE
YELWES
    24    25     1
SMALL
NO_CHARGES
****
Generated from CSD

@<TRIPOS>ATOM
      1 O1         1.7367    1.4851   10.9198 O.3       1 RES1    0.0000
      2 N1         1.8360    1.3444    9.4884 N.2       1 RES1    0.0000
      3 C1         3.0423    1.3726    9.0181 C.2       1 RES1    0.0000
      4 N2         4.1684    1.5241    9.7468 N.3       1 RES1    0.0000
      5 H1         4.9295    1.5426    9.3454 H         1 RES1    0.0000
      6 C2         4.1240    1.6533   11.1694 C.3       1 RES1    0.0000
      7 H2         4.8957    1.1958   11.5650 H         1 RES1    0.0000
      8 C3         2.8472    0.9860   11.6369 C.3       1 RES1    0.0000
      9 H3         2.7207    1.1735   12.5901 H         1 RES1    0.0000
     10 O2         4.1010    2.9998   11.6020 O.3       1 RES1    0.0000
     11 H4         4.7856    3.3776   11.3555 H         1 RES1    0.0000
     12 O3         3.0267   -0.3848   11.4643 O.3       1 RES1    0.0000
     13 H5         2.3025   -0.7645   11.5227 H         1 RES1    0.0000
     14 C4         3.2017    1.2026    7.5571 C.ar      1 RES1    0.0000
     15 C5         2.3991    0.3167    6.8665 C.ar      1 RES1    0.0000
     16 H6         1.7481   -0.1710    7.3172 H         1 RES1    0.0000
     17 C6         2.5642    0.1564    5.5086 C.ar      1 RES1    0.0000
     18 H7         2.0224   -0.4430    5.0473 H         1 RES1    0.0000
     19 C7         3.5155    0.8694    4.8278 C.ar      1 RES1    0.0000
     20 H8         3.6170    0.7548    3.9114 H         1 RES1    0.0000
     21 C8         4.3152    1.7495    5.4999 C.ar      1 RES1    0.0000
     22 H9         4.9594    2.2362    5.0393 H         1 RES1    0.0000
     23 C9         4.1675    1.9185    6.8693 C.ar      1 RES1    0.0000
     24 H10        4.7170    2.5140    7.3253 H         1 RES1    0.0000
@<TRIPOS>BOND
     1    1    2 1
     2    2    3 2
     3    3    4 1
     4    4    5 1
     5    6    4 1
     6    7    6 1
     7    8    1 1
     8    9    8 1
     9   10    6 1
    10   11   10 1
    11   12    8 1
    12   13   12 1
    13   14    3 1
    14   15   14 ar
    15   16   15 1
    16   17   15 ar
    17   18   17 1
    18   19   17 ar
    19   20   19 1
    20   21   19 ar
    21   22   21 1
    22   23   14 ar
    23   24   23 1
    24    6    8 1
    25   21   23 ar
@<TRIPOS>SUBSTRUCTURE
     1 RES1 1

@<TRIPOS>CRYSIN
   9.6581    9.7140   20.1410  90.0000  90.0000  90.0000  61 1

