# MOL2 file generated by ConQuest
# Please check atom types

@<TRIPOS>MOLECULE
YEMGIJ
    48    52     1
SMALL
NO_CHARGES
****
Generated from CSD

@<TRIPOS>ATOM
      1 O1         8.1557    0.9355   11.9447 O.2       1 RES1    0.0000
      2 O2         9.6450    2.1652   10.9760 O.2       1 RES1    0.0000
      3 N1         9.2361    1.0820   11.3702 N.pl3     1 RES1    0.0000
      4 C1        12.3431   -7.8855    8.4388 C.2       1 RES1    0.0000
      5 C2        12.5308   -6.0203   10.0332 C.3       1 RES1    0.0000
      6 N2         9.2839   -6.4154    8.6431 N.1       1 RES1    0.0000
      7 C3        12.4540   -3.5477   10.4479 C.2       1 RES1    0.0000
      8 C4        11.3680   -8.1339   10.7470 C.1       1 RES1    0.0000
      9 C5        10.2731   -6.7698    9.0890 C.1       1 RES1    0.0000
     10 C6         9.5691   -1.3422   11.5163 C.ar      1 RES1    0.0000
     11 C7        10.3645   -2.4567   11.2946 C.ar      1 RES1    0.0000
     12 C8        11.6263   -2.3402   10.7036 C.ar      1 RES1    0.0000
     13 C9        11.8382   -4.6944   10.1139 C.2       1 RES1    0.0000
     14 C10       13.6301   -6.0315    8.9894 C.2       1 RES1    0.0000
     15 C11       11.3075    0.0535   10.5735 C.ar      1 RES1    0.0000
     16 N3        11.2276   -8.8316   11.6311 N.1       1 RES1    0.0000
     17 C12       11.5931   -7.2231    9.6023 C.3       1 RES1    0.0000
     18 C13       11.9136   -9.0919    7.7275 C.ar      1 RES1    0.0000
     19 C14       14.6717   -5.1754    9.0061 C.2       1 RES1    0.0000
     20 C15       13.8987   -3.4192   10.6202 C.2       1 RES1    0.0000
     21 C16       14.8524   -4.1171    9.9733 C.2       1 RES1    0.0000
     22 C17       10.0660   -0.1049   11.1398 C.ar      1 RES1    0.0000
     23 C18       12.0930   -1.0676   10.3586 C.ar      1 RES1    0.0000
     24 C19       13.4360   -7.1669    8.1070 C.2       1 RES1    0.0000
     25 C20       12.5669   -9.3705    6.5116 C.ar      1 RES1    0.0000
     26 C21       10.9212   -9.9587    8.1864 C.ar      1 RES1    0.0000
     27 C22       11.2813  -11.3926    6.2977 C.ar      1 RES1    0.0000
     28 C23       10.6035  -11.1032    7.4804 C.ar      1 RES1    0.0000
     29 C24       12.2435  -10.5369    5.8226 C.ar      1 RES1    0.0000
     30 C25       14.3284   -7.6033    6.9785 C.3       1 RES1    0.0000
     31 H1        10.8719   -4.6733    9.9843 H         1 RES1    0.0000
     32 H2        12.9820   -0.9829    9.9593 H         1 RES1    0.0000
     33 H3        15.8032   -3.8724   10.1241 H         1 RES1    0.0000
     34 H4        10.4475   -9.7988    9.0381 H         1 RES1    0.0000
     35 H5        12.9350   -6.2407   10.9106 H         1 RES1    0.0000
     36 H6        11.5714    0.9223   10.3214 H         1 RES1    0.0000
     37 H7        14.1976   -2.7254   11.2002 H         1 RES1    0.0000
     38 H8        15.3445   -5.3116    8.3639 H         1 RES1    0.0000
     39 H9        10.0461   -3.3278   11.6122 H         1 RES1    0.0000
     40 H10        8.6814   -1.4103   11.9367 H         1 RES1    0.0000
     41 H11        9.8971  -11.7026    7.8197 H         1 RES1    0.0000
     42 H12       12.7068  -10.6783    4.9709 H         1 RES1    0.0000
     43 H13       11.1242  -12.1727    5.8498 H         1 RES1    0.0000
     44 H14       14.7710   -6.8597    6.5963 H         1 RES1    0.0000
     45 H15       14.9431   -8.2989    7.2904 H         1 RES1    0.0000
     46 C26       13.5050   -8.3574    5.9172 C.3       1 RES1    0.0000
     47 H16       12.8673   -7.6097    5.4029 H         1 RES1    0.0000
     48 H17       14.2091   -8.8366    5.2506 H         1 RES1    0.0000
@<TRIPOS>BOND
     1    1    3 2
     2    2    3 2
     3    3   22 1
     4    4   17 1
     5    5   13 1
     6    6    9 3
     7    7   12 1
     8    8   16 3
     9    9   17 1
    10   10   11 ar
    11   11   12 ar
    12   12   23 ar
    13   13    7 2
    14   14    5 1
    15   15   22 ar
    16   17    5 1
    17   18    4 1
    18   19   14 2
    19   20    7 1
    20   21   19 1
    21   22   10 ar
    22   23   15 ar
    23   24    4 2
    24   25   18 ar
    25   26   18 ar
    26   27   28 ar
    27   28   26 ar
    28   29   25 ar
    29   30   24 1
    30   31   13 1
    31   32   23 1
    32   33   21 1
    33   34   26 1
    34   35    5 1
    35   36   15 1
    36   37   20 1
    37   38   19 1
    38   39   11 1
    39   40   10 1
    40   41   28 1
    41   42   29 1
    42   43   27 1
    43   44   30 1
    44   45   30 1
    45   46   25 1
    46   47   46 1
    47   48   46 1
    48    8   17 1
    49   14   24 1
    50   20   21 2
    51   27   29 ar
    52   30   46 1
@<TRIPOS>SUBSTRUCTURE
     1 RES1 1

@<TRIPOS>CRYSIN
  11.4682   13.7856   24.9670  90.0000  90.0000  90.0000  61 1

