# MOL2 file generated by ConQuest
# Please check atom types

@<TRIPOS>MOLECULE
YENSUI
    33    34     1
SMALL
NO_CHARGES
****
Generated from CSD

@<TRIPOS>ATOM
      1 O1        -8.2392    0.4039    0.0392 O.3       1 RES1    0.0000
      2 H1        -7.7449    0.5085    0.8030 H         1 RES1    0.0000
      3 O2        -0.8481    0.6435    6.3878 O.3       1 RES1    0.0000
      4 H2        -0.1806    0.3618    6.0029 H         1 RES1    0.0000
      5 N1        -7.4845    0.8410    2.4717 N.2       1 RES1    0.0000
      6 N2        -1.9565    0.5741    5.5172 N.2       1 RES1    0.0000
      7 C1        -9.4839    0.7227    0.4485 C.ar      1 RES1    0.0000
      8 C2       -10.5210    0.6542   -0.4563 C.ar      1 RES1    0.0000
      9 H3       -10.3525    0.3834   -1.3299 H         1 RES1    0.0000
     10 C3       -11.8041    0.9809   -0.0803 C.ar      1 RES1    0.0000
     11 H4       -12.4957    0.9193   -0.6992 H         1 RES1    0.0000
     12 C4       -12.0782    1.4004    1.2074 C.ar      1 RES1    0.0000
     13 H5       -12.9443    1.6263    1.4572 H         1 RES1    0.0000
     14 C5       -11.0432    1.4786    2.1182 C.ar      1 RES1    0.0000
     15 H6       -11.2216    1.7681    2.9848 H         1 RES1    0.0000
     16 C6        -9.7381    1.1344    1.7695 C.ar      1 RES1    0.0000
     17 C7        -8.6844    1.1911    2.7596 C.2       1 RES1    0.0000
     18 H7        -8.8809    1.4855    3.6194 H         1 RES1    0.0000
     19 C8        -6.4280    0.9202    3.4147 C.ar      1 RES1    0.0000
     20 C9        -5.4328   -0.0274    3.3491 C.ar      1 RES1    0.0000
     21 H8        -5.4965   -0.7159    2.7273 H         1 RES1    0.0000
     22 C10       -4.3407    0.0303    4.1913 C.ar      1 RES1    0.0000
     23 H9        -3.6911   -0.6337    4.1492 H         1 RES1    0.0000
     24 C11       -4.1998    1.0845    5.1147 C.ar      1 RES1    0.0000
     25 C12       -5.2178    2.0116    5.1784 C.ar      1 RES1    0.0000
     26 H10       -5.1652    2.6991    5.8022 H         1 RES1    0.0000
     27 C13       -6.3119    1.9461    4.3411 C.ar      1 RES1    0.0000
     28 H11       -6.9758    2.5935    4.3979 H         1 RES1    0.0000
     29 C14       -2.9958    1.1794    5.9628 C.2       1 RES1    0.0000
     30 C15       -3.0255    1.9451    7.2613 C.3       1 RES1    0.0000
     31 H12       -2.3369    1.6156    7.8430 H         1 RES1    0.0000
     32 H13       -3.8814    1.8307    7.6804 H         1 RES1    0.0000
     33 H14       -2.8772    2.8771    7.0850 H         1 RES1    0.0000
@<TRIPOS>BOND
     1    1    2 1
     2    3    4 1
     3    5   17 2
     4    6    3 1
     5    7    1 1
     6    8    7 ar
     7    9    8 1
     8   10    8 ar
     9   11   10 1
    10   12   10 ar
    11   13   12 1
    12   14   12 ar
    13   15   14 1
    14   16    7 ar
    15   17   16 1
    16   18   17 1
    17   19    5 1
    18   20   19 ar
    19   21   20 1
    20   22   20 ar
    21   23   22 1
    22   24   22 ar
    23   25   24 ar
    24   26   25 1
    25   27   19 ar
    26   28   27 1
    27   29    6 2
    28   30   29 1
    29   31   30 1
    30   32   30 1
    31   33   30 1
    32   14   16 ar
    33   24   29 1
    34   25   27 ar
@<TRIPOS>SUBSTRUCTURE
     1 RES1 1

@<TRIPOS>CRYSIN
  13.5809    9.7794    9.8883  90.0000  97.9720  90.0000  14 1

