# MOL2 file generated by ConQuest
# Please check atom types

@<TRIPOS>MOLECULE
YEPJIM
    62    66     1
SMALL
NO_CHARGES
****
Generated from CSD

@<TRIPOS>ATOM
      1 O1        -1.4835  -10.9411  -22.7623 O.3       1 RES1    0.0000
      2 C1        -1.8756  -10.3359  -23.9449 C.3       1 RES1    0.0000
      3 H1        -1.1217   -9.6162  -24.2276 H         1 RES1    0.0000
      4 C2        -2.1074  -11.4454  -24.9791 C.3       1 RES1    0.0000
      5 H2        -1.4736  -11.4133  -25.8533 H         1 RES1    0.0000
      6 C3        -1.9005  -12.7375  -24.1899 C.3       1 RES1    0.0000
      7 H3        -2.5903  -13.5280  -24.4460 H         1 RES1    0.0000
      8 C4        -2.0371  -12.2666  -22.7594 C.3       1 RES1    0.0000
      9 H4        -3.0768  -12.3389  -22.4761 H         1 RES1    0.0000
     10 C5        -1.3185  -13.0851  -21.7254 C.3       1 RES1    0.0000
     11 H5        -0.2690  -12.9490  -21.9403 H         1 RES1    0.0000
     12 C6        -1.6398  -12.6854  -20.2775 C.3       1 RES1    0.0000
     13 H6        -2.5759  -12.1491  -20.2287 H         1 RES1    0.0000
     14 H7        -0.8515  -12.0716  -19.8670 H         1 RES1    0.0000
     15 O2        -1.7982  -14.4061  -21.7862 O.3       1 RES1    0.0000
     16 O3        -1.7281  -13.8814  -19.6009 O.3       1 RES1    0.0000
     17 C7        -2.0835  -14.8831  -20.4929 C.3       1 RES1    0.0000
     18 C8        -3.5353  -15.1635  -20.4066 C.3       1 RES1    0.0000
     19 H8        -3.9049  -15.4060  -19.4210 H         1 RES1    0.0000
     20 H9        -3.9688  -15.8386  -21.1299 H         1 RES1    0.0000
     21 H10       -3.8077  -14.1481  -20.6535 H         1 RES1    0.0000
     22 C9        -1.2706  -16.1215  -20.2317 C.3       1 RES1    0.0000
     23 H11       -0.9955  -16.8101  -21.0168 H         1 RES1    0.0000
     24 H12       -1.6291  -16.6751  -19.3765 H         1 RES1    0.0000
     25 H13       -0.4085  -15.5372  -19.9465 H         1 RES1    0.0000
     26 O4        -3.1468   -9.7257  -23.7933 O.3       1 RES1    0.0000
     27 O5        -3.4713  -11.3203  -25.3462 O.3       1 RES1    0.0000
     28 C10       -3.9244  -10.0348  -24.9341 C.3       1 RES1    0.0000
     29 C11       -3.7078   -9.0131  -26.0269 C.3       1 RES1    0.0000
     30 H14       -4.1864   -9.4552  -26.8885 H         1 RES1    0.0000
     31 H15       -2.6583   -8.8654  -26.2347 H         1 RES1    0.0000
     32 H16       -4.1690   -8.0614  -25.8077 H         1 RES1    0.0000
     33 C12       -5.3610  -10.1771  -24.5290 C.3       1 RES1    0.0000
     34 H17       -5.6877   -9.2235  -24.1416 H         1 RES1    0.0000
     35 H18       -5.5206  -10.9422  -23.7838 H         1 RES1    0.0000
     36 H19       -5.9254  -10.4170  -25.4181 H         1 RES1    0.0000
     37 O6        -0.6029  -13.2647  -24.4392 O.3       1 RES1    0.0000
     38 C13       -0.6106  -14.5270  -25.0377 C.3       1 RES1    0.0000
     39 H20       -1.1768  -15.2164  -24.4289 H         1 RES1    0.0000
     40 C14        0.8173  -15.0251  -25.1468 C.3       1 RES1    0.0000
     41 H21        0.8258  -16.0280  -25.5478 H         1 RES1    0.0000
     42 C15        1.5545  -14.1081  -26.0836 C.3       1 RES1    0.0000
     43 H22        2.4613  -14.5973  -26.4075 H         1 RES1    0.0000
     44 H23        1.8043  -13.1995  -25.5559 H         1 RES1    0.0000
     45 C16        0.7390  -13.7577  -27.2876 C.2       1 RES1    0.0000
     46 O7        -1.2473  -14.4812  -26.3066 O.3       1 RES1    0.0000
     47 N1        -0.5358  -13.9097  -27.3978 N.2       1 RES1    0.0000
     48 C17        1.4914  -15.1558  -23.7949 C.3       1 RES1    0.0000
     49 H24        0.9241  -15.8280  -23.1682 H         1 RES1    0.0000
     50 H25        1.5606  -14.1900  -23.3166 H         1 RES1    0.0000
     51 H26        2.4835  -15.5551  -23.9452 H         1 RES1    0.0000
     52 C18        1.3811  -13.1684  -28.4846 C.ar      1 RES1    0.0000
     53 C19        2.7075  -12.7646  -28.4393 C.ar      1 RES1    0.0000
     54 H27        3.2727  -12.8815  -27.5264 H         1 RES1    0.0000
     55 C20        3.3169  -12.2091  -29.5633 C.ar      1 RES1    0.0000
     56 H28        4.3569  -11.9205  -29.5245 H         1 RES1    0.0000
     57 C21        2.5957  -12.0265  -30.7288 C.ar      1 RES1    0.0000
     58 H29        3.0568  -11.5773  -31.5961 H         1 RES1    0.0000
     59 C22        1.3021  -12.4195  -30.7638 C.ar      1 RES1    0.0000
     60 H30        0.7352  -12.2805  -31.6726 H         1 RES1    0.0000
     61 C23        0.6870  -12.9941  -29.6691 C.ar      1 RES1    0.0000
     62 H31       -0.3436  -13.3095  -29.7380 H         1 RES1    0.0000
@<TRIPOS>BOND
     1    1    2 1
     2    2    3 1
     3    4    2 1
     4    5    4 1
     5    6    4 1
     6    7    6 1
     7    8    1 1
     8    9    8 1
     9   10    8 1
    10   11   10 1
    11   12   10 1
    12   13   12 1
    13   14   12 1
    14   15   10 1
    15   16   12 1
    16   17   15 1
    17   18   17 1
    18   19   18 1
    19   20   18 1
    20   21   18 1
    21   22   17 1
    22   23   22 1
    23   24   22 1
    24   25   22 1
    25   26    2 1
    26   27    4 1
    27   28   26 1
    28   29   28 1
    29   30   29 1
    30   31   29 1
    31   32   29 1
    32   33   28 1
    33   34   33 1
    34   35   33 1
    35   36   33 1
    36   37    6 1
    37   38   37 1
    38   39   38 1
    39   40   38 1
    40   41   40 1
    41   42   40 1
    42   43   42 1
    43   44   42 1
    44   45   42 1
    45   46   38 1
    46   47   45 2
    47   48   40 1
    48   49   48 1
    49   50   48 1
    50   51   48 1
    51   52   45 1
    52   53   52 ar
    53   54   53 1
    54   55   53 ar
    55   56   55 1
    56   57   55 ar
    57   58   57 1
    58   59   57 ar
    59   60   59 1
    60   61   52 ar
    61   62   61 1
    62    6    8 1
    63   16   17 1
    64   27   28 1
    65   46   47 1
    66   59   61 ar
@<TRIPOS>SUBSTRUCTURE
     1 RES1 1

@<TRIPOS>CRYSIN
   6.9470   12.4780   27.1300  90.0000  90.0000  90.0000  19 1

