# MOL2 file generated by ConQuest
# Please check atom types

@<TRIPOS>MOLECULE
YEQGUW
    28    28     1
SMALL
USER_CHARGES
****
Generated from CSD

@<TRIPOS>ATOM
      1 O1         2.8021    3.7178    9.9895 O.2       1 RES1   -1.0000
      2 O2        -1.4970    0.3330    7.2350 O.2       1 RES1    0.0000
      3 O3         0.4464    1.3659    6.7216 O.3       1 RES1    0.0000
      4 N1         1.7983    3.7800   10.8194 N.pl3     1 RES1    1.0000
      5 C1         1.9465    4.4558   11.9971 C.ar      1 RES1    0.0000
      6 C2         0.9307    4.5344   12.9085 C.ar      1 RES1    0.0000
      7 C3        -0.2915    3.9251   12.6524 C.ar      1 RES1    0.0000
      8 C4        -0.4437    3.2634   11.4454 C.ar      1 RES1    0.0000
      9 C5         0.5871    3.1867   10.5203 C.ar      1 RES1    0.0000
     10 C6         0.5041    2.4996    9.2336 C.2       1 RES1    0.0000
     11 C7        -0.5914    1.9100    8.7606 C.2       1 RES1    0.0000
     12 C8        -0.6132    1.1241    7.5027 C.2       1 RES1    0.0000
     13 C9         0.5409    0.6171    5.4588 C.3       1 RES1    0.0000
     14 C10       -0.3465    1.2757    4.4220 C.3       1 RES1    0.0000
     15 C11        2.0015    0.6605    5.0776 C.3       1 RES1    0.0000
     16 H1         2.7570    4.8719   12.1837 H         1 RES1    0.0000
     17 H2         1.0580    4.9984   13.7045 H         1 RES1    0.0000
     18 H3        -0.9848    3.9606   13.2714 H         1 RES1    0.0000
     19 H4        -1.2590    2.8601   11.2502 H         1 RES1    0.0000
     20 H5         1.2709    2.4719    8.7077 H         1 RES1    0.0000
     21 H6        -1.3828    1.9956    9.2422 H         1 RES1    0.0000
     22 H7         0.2595   -0.3113    5.5986 H         1 RES1    0.0000
     23 H8        -1.2557    1.2737    4.7313 H         1 RES1    0.0000
     24 H9        -0.0582    2.1800    4.2827 H         1 RES1    0.0000
     25 H10       -0.2887    0.7897    3.5961 H         1 RES1    0.0000
     26 H11        2.2766    1.5737    4.9660 H         1 RES1    0.0000
     27 H12        2.5255    0.2507    5.7695 H         1 RES1    0.0000
     28 H13        2.1316    0.1845    4.2541 H         1 RES1    0.0000
@<TRIPOS>BOND
     1    1    4 1
     2    2   12 2
     3    3   12 1
     4    4    5 ar
     5    5    6 ar
     6    6    7 ar
     7    7    8 ar
     8    8    9 ar
     9    9    4 ar
    10   10    9 1
    11   11   10 2
    12   12   11 1
    13   13    3 1
    14   14   13 1
    15   15   13 1
    16   16    5 1
    17   17    6 1
    18   18    7 1
    19   19    8 1
    20   20   10 1
    21   21   11 1
    22   22   13 1
    23   23   14 1
    24   24   14 1
    25   25   14 1
    26   26   15 1
    27   27   15 1
    28   28   15 1
@<TRIPOS>SUBSTRUCTURE
     1 RES1 1

@<TRIPOS>CRYSIN
   6.2676    7.6041   11.3090  99.1700  97.2500 100.4700   2 1

