# MOL2 file generated by ConQuest
# Please check atom types

@<TRIPOS>MOLECULE
YEQHUX
    46    47     1
SMALL
USER_CHARGES
****
Generated from CSD

@<TRIPOS>ATOM
      1 N1         5.2116    5.1649    1.3676 N.pl3     1 RES1    1.0000
      2 O1         5.5054    4.1211    2.1263 O.2       1 RES1   -1.0000
      3 C1         5.3871    6.4109    1.8726 C.ar      1 RES1    0.0000
      4 O2         3.7284    7.0894    4.1932 O.3       1 RES1    0.0000
      5 N2         6.5608    7.7413    3.5546 N.am      1 RES1    0.0000
      6 C2         5.0957    7.4814    1.0743 C.ar      1 RES1    0.0000
      7 O3         5.1123    7.0706    6.5324 O.2       1 RES1    0.0000
      8 C3         4.6510    7.3115   -0.2178 C.ar      1 RES1    0.0000
      9 O4         6.3479    5.3371    5.8294 O.3       1 RES1    0.0000
     10 C4         4.4903    6.0367   -0.6980 C.ar      1 RES1    0.0000
     11 O5         8.7043    7.0084    3.4556 O.2       1 RES1    0.0000
     12 C5         4.7694    4.9739    0.1015 C.ar      1 RES1    0.0000
     13 O6         8.1770    9.1239    4.0707 O.3       1 RES1    0.0000
     14 C6         5.9257    6.4775    3.2749 C.3       1 RES1    0.0000
     15 C7         4.8089    6.2055    4.3133 C.3       1 RES1    0.0000
     16 C8         5.4150    6.2688    5.6982 C.2       1 RES1    0.0000
     17 C9         7.1349    5.3881    7.0522 C.3       1 RES1    0.0000
     18 C10        8.3774    4.7574    6.8431 C.3       1 RES1    0.0000
     19 C11        7.8924    7.8757    3.6808 C.2       1 RES1    0.0000
     20 C12        9.5679    9.4148    4.2662 C.3       1 RES1    0.0000
     21 C13        9.7573   10.8962    4.3170 C.ar      1 RES1    0.0000
     22 C14       11.0479   11.3760    4.4766 C.ar      1 RES1    0.0000
     23 C15       11.3022   12.7219    4.4729 C.ar      1 RES1    0.0000
     24 C16       10.2790   13.6247    4.3207 C.ar      1 RES1    0.0000
     25 C17        9.0099   13.1650    4.1796 C.ar      1 RES1    0.0000
     26 C18        8.7485   11.7991    4.1846 C.ar      1 RES1    0.0000
     27 H1         3.9945    7.8590    4.2836 H         1 RES1    0.0000
     28 H2         6.0677    8.4398    3.6449 H         1 RES1    0.0000
     29 H3         5.1998    8.3432    1.4109 H         1 RES1    0.0000
     30 H4         4.4642    8.0467   -0.7550 H         1 RES1    0.0000
     31 H5         4.1907    5.9001   -1.5669 H         1 RES1    0.0000
     32 H6         4.6559    4.1100   -0.2228 H         1 RES1    0.0000
     33 H7         6.6015    5.7746    3.3702 H         1 RES1    0.0000
     34 H8         4.4736    5.2960    4.1697 H         1 RES1    0.0000
     35 H9         7.2763    6.3121    7.3121 H         1 RES1    0.0000
     36 H10        6.6574    4.9417    7.7688 H         1 RES1    0.0000
     37 H11        8.8949    4.7929    7.6513 H         1 RES1    0.0000
     38 H12        8.8513    5.2082    6.1401 H         1 RES1    0.0000
     39 H13        8.2330    3.8412    6.5955 H         1 RES1    0.0000
     40 H14       10.0879    9.0417    3.5385 H         1 RES1    0.0000
     41 H15        9.8737    9.0161    5.0955 H         1 RES1    0.0000
     42 H16       11.7496   10.7763    4.5893 H         1 RES1    0.0000
     43 H17       12.1759   13.0273    4.5719 H         1 RES1    0.0000
     44 H18       10.4528   14.5387    4.3145 H         1 RES1    0.0000
     45 H19        8.3085   13.7680    4.0806 H         1 RES1    0.0000
     46 H20        7.8730   11.4992    4.0954 H         1 RES1    0.0000
@<TRIPOS>BOND
     1    1    2 1
     2    3    1 ar
     3    4   15 1
     4    5   14 1
     5    6    3 ar
     6    7   16 2
     7    8    6 ar
     8    9   16 1
     9   10    8 ar
    10   11   19 2
    11   12    1 ar
    12   13   19 1
    13   14    3 1
    14   15   14 1
    15   16   15 1
    16   17    9 1
    17   18   17 1
    18   19    5 1
    19   20   13 1
    20   21   20 1
    21   22   21 ar
    22   23   22 ar
    23   24   23 ar
    24   25   24 ar
    25   26   21 ar
    26   27    4 1
    27   28    5 1
    28   29    6 1
    29   30    8 1
    30   31   10 1
    31   32   12 1
    32   33   14 1
    33   34   15 1
    34   35   17 1
    35   36   17 1
    36   37   18 1
    37   38   18 1
    38   39   18 1
    39   40   20 1
    40   41   20 1
    41   42   22 1
    42   43   23 1
    43   44   24 1
    44   45   25 1
    45   46   26 1
    46   10   12 ar
    47   25   26 ar
@<TRIPOS>SUBSTRUCTURE
     1 RES1 1

@<TRIPOS>CRYSIN
  12.9550   11.1050   13.5870  90.0000 114.3670  90.0000  14 1

