# MOL2 file generated by ConQuest
# Please check atom types

@<TRIPOS>MOLECULE
YERTOF
    65    68     1
SMALL
NO_CHARGES
****
Generated from CSD

@<TRIPOS>ATOM
      1 O1         4.7613   -0.0602   10.4577 O.2       1 RES1    0.0000
      2 O2         4.4603    1.8400   11.4421 O.2       1 RES1    0.0000
      3 O3         2.2290    5.3667    9.0894 O.2       1 RES1    0.0000
      4 O4         0.9728    4.8268    7.4198 O.2       1 RES1    0.0000
      5 O5         2.1046    3.1174    5.8030 O.3       1 RES1    0.0000
      6 O6         2.1635    4.2466    3.2193 O.3       1 RES1    0.0000
      7 O7         0.3494    4.2646    1.1995 O.3       1 RES1    0.0000
      8 O8         4.5317    5.2082    6.8659 O.2       1 RES1    0.0000
      9 N1         4.3980    1.1029   10.4638 N.pl3     1 RES1    0.0000
     10 N2         1.8765    4.5954    8.2001 N.pl3     1 RES1    0.0000
     11 N3         3.3022    7.6003    5.1887 N.2       1 RES1    0.0000
     12 N4         5.4476    8.3800    7.9186 N.3       1 RES1    0.0000
     13 N5         5.4312    6.9943    8.0504 N.am      1 RES1    0.0000
     14 C1         2.5762    3.3071    8.1143 C.ar      1 RES1    0.0000
     15 C2         3.1392    2.8340    9.2780 C.ar      1 RES1    0.0000
     16 H1         3.0461    3.3012   10.0773 H         1 RES1    0.0000
     17 C3         3.8413    1.6561    9.2275 C.ar      1 RES1    0.0000
     18 C4         4.0303    0.9746    8.0379 C.ar      1 RES1    0.0000
     19 H2         4.5339    0.1933    8.0214 H         1 RES1    0.0000
     20 C5         3.4704    1.4605    6.8824 C.ar      1 RES1    0.0000
     21 H3         3.6066    1.0101    6.0807 H         1 RES1    0.0000
     22 C6         2.6990    2.6202    6.8976 C.ar      1 RES1    0.0000
     23 C7         2.0943    2.3321    4.5923 C.3       1 RES1    0.0000
     24 H4         1.6592    1.4791    4.7466 H         1 RES1    0.0000
     25 H5         2.9998    2.1670    4.2870 H         1 RES1    0.0000
     26 C8         1.3365    3.1300    3.5758 C.3       1 RES1    0.0000
     27 H6         1.1463    2.5871    2.7941 H         1 RES1    0.0000
     28 H7         0.4961    3.4389    3.9484 H         1 RES1    0.0000
     29 C9         1.5306    5.4234    2.8687 C.ar      1 RES1    0.0000
     30 C10        0.6224    5.4708    1.7984 C.ar      1 RES1    0.0000
     31 C11        0.0858    6.6826    1.4117 C.ar      1 RES1    0.0000
     32 H8        -0.5123    6.7242    0.7006 H         1 RES1    0.0000
     33 C12        0.4442    7.8364    2.0900 C.ar      1 RES1    0.0000
     34 H9         0.0834    8.6531    1.8279 H         1 RES1    0.0000
     35 C13        1.3217    7.7955    3.1416 C.ar      1 RES1    0.0000
     36 H10        1.5439    8.5806    3.5864 H         1 RES1    0.0000
     37 C14        1.8851    6.5870    3.5533 C.ar      1 RES1    0.0000
     38 C15       -0.6439    4.2487    0.1657 C.3       1 RES1    0.0000
     39 H11       -1.4575    4.6354    0.4972 H         1 RES1    0.0000
     40 H12       -0.8079    3.3428   -0.1070 H         1 RES1    0.0000
     41 H13       -0.3312    4.7578   -0.5866 H         1 RES1    0.0000
     42 C16        2.7861    6.5244    4.7132 C.2       1 RES1    0.0000
     43 H14        2.9836    5.7027    5.1039 H         1 RES1    0.0000
     44 C17        4.1332    7.5586    6.3125 C.2       1 RES1    0.0000
     45 C18        4.6479    6.4394    7.0353 C.2       1 RES1    0.0000
     46 C19        4.6249    8.7067    6.8964 C.2       1 RES1    0.0000
     47 C20        4.3196   10.1155    6.5509 C.3       1 RES1    0.0000
     48 H15        3.9248   10.5520    7.3103 H         1 RES1    0.0000
     49 H16        3.7053   10.1382    5.8139 H         1 RES1    0.0000
     50 H17        5.1295   10.5676    6.3064 H         1 RES1    0.0000
     51 C21        5.9656    9.2398    8.9689 C.3       1 RES1    0.0000
     52 H18        5.5675   10.1105    8.8948 H         1 RES1    0.0000
     53 H19        6.9178    9.3160    8.8807 H         1 RES1    0.0000
     54 H20        5.7526    8.8628    9.8258 H         1 RES1    0.0000
     55 C22        6.2678    6.2940    8.9615 C.ar      1 RES1    0.0000
     56 C23        7.6242    6.5454    9.0312 C.ar      1 RES1    0.0000
     57 H21        8.0152    7.1792    8.4752 H         1 RES1    0.0000
     58 C24        8.3907    5.8419    9.9351 C.ar      1 RES1    0.0000
     59 H22        9.2976    6.0258   10.0162 H         1 RES1    0.0000
     60 C25        7.8174    4.8687   10.7192 C.ar      1 RES1    0.0000
     61 H23        8.3443    4.3830   11.3128 H         1 RES1    0.0000
     62 C26        6.4697    4.6080   10.6298 C.ar      1 RES1    0.0000
     63 H24        6.0866    3.9469   11.1600 H         1 RES1    0.0000
     64 C27        5.6904    5.3267    9.7541 C.ar      1 RES1    0.0000
     65 H25        4.7772    5.1601    9.6977 H         1 RES1    0.0000
@<TRIPOS>BOND
     1    1    9 2
     2    2    9 2
     3    3   10 2
     4    4   10 2
     5    5   22 1
     6    6   26 1
     7    7   30 1
     8    8   45 2
     9    9   17 1
    10   10   14 1
    11   11   42 2
    12   12   13 1
    13   13   45 1
    14   14   15 ar
    15   15   16 1
    16   17   15 ar
    17   18   17 ar
    18   19   18 1
    19   20   18 ar
    20   21   20 1
    21   22   14 ar
    22   23    5 1
    23   24   23 1
    24   25   23 1
    25   26   23 1
    26   27   26 1
    27   28   26 1
    28   29    6 1
    29   30   29 ar
    30   31   30 ar
    31   32   31 1
    32   33   31 ar
    33   34   33 1
    34   35   33 ar
    35   36   35 1
    36   37   29 ar
    37   38    7 1
    38   39   38 1
    39   40   38 1
    40   41   38 1
    41   42   37 1
    42   43   42 1
    43   44   11 1
    44   45   44 1
    45   46   12 1
    46   47   46 1
    47   48   47 1
    48   49   47 1
    49   50   47 1
    50   51   12 1
    51   52   51 1
    52   53   51 1
    53   54   51 1
    54   55   13 1
    55   56   55 ar
    56   57   56 1
    57   58   56 ar
    58   59   58 1
    59   60   58 ar
    60   61   60 1
    61   62   60 ar
    62   63   62 1
    63   64   55 ar
    64   65   64 1
    65   20   22 ar
    66   35   37 ar
    67   44   46 2
    68   62   64 ar
@<TRIPOS>SUBSTRUCTURE
     1 RES1 1

@<TRIPOS>CRYSIN
   9.3070   12.1300   12.7180  67.9200  89.0650  77.4970   2 1

