# MOL2 file generated by ConQuest
# Please check atom types

@<TRIPOS>MOLECULE
YESMUH
    36    39     1
SMALL
NO_CHARGES
****
Generated from CSD

@<TRIPOS>ATOM
      1 C1         1.8424    0.2410    3.2782 C.3       1 RES1    0.0000
      2 H1         2.1086   -0.5176    3.8207 H         1 RES1    0.0000
      3 H2         2.6462    0.6587    2.9314 H         1 RES1    0.0000
      4 C2         1.1071    1.2116    4.1177 C.2       1 RES1    0.0000
      5 C3        -0.0781    2.7159    4.9546 C.2       1 RES1    0.0000
      6 C4        -1.0676    3.7878    5.0502 C.ar      1 RES1    0.0000
      7 C5        -1.3096    4.4689    6.2322 C.ar      1 RES1    0.0000
      8 H3        -0.8536    4.2438    7.0107 H         1 RES1    0.0000
      9 C6        -2.2343    5.4806    6.2322 C.ar      1 RES1    0.0000
     10 H4        -2.4046    5.9609    7.0099 H         1 RES1    0.0000
     11 C7        -2.9032    5.7762    5.0783 C.ar      1 RES1    0.0000
     12 H5        -3.5343    6.4588    5.0992 H         1 RES1    0.0000
     13 C8        -1.7880    4.1654    3.9351 C.ar      1 RES1    0.0000
     14 H6        -1.6284    3.7125    3.1384 H         1 RES1    0.0000
     15 N1         0.1700    2.0261    3.7849 N.2       1 RES1    0.0000
     16 N2         0.6551    2.3462    5.9605 N.2       1 RES1    0.0000
     17 N3        -2.7014    5.1430    3.9292 N.ar      1 RES1    0.0000
     18 O1         1.4653    1.3205    5.4111 O.3       1 RES1    0.0000
     19 C1B        0.9886   -0.2410    2.1242 C.3       1 RES1    0.0000
     20 H1B        0.7224    0.5176    1.5817 H         1 RES1    0.0000
     21 H2B        0.1847   -0.6587    2.4710 H         1 RES1    0.0000
     22 C2B        1.7239   -1.2116    1.2847 C.2       1 RES1    0.0000
     23 C3B        2.9090   -2.7159    0.4479 C.2       1 RES1    0.0000
     24 C4B        3.8986   -3.7878    0.3522 C.ar      1 RES1    0.0000
     25 C5B        4.1406   -4.4689   -0.8298 C.ar      1 RES1    0.0000
     26 H3B        3.6846   -4.2438   -1.6083 H         1 RES1    0.0000
     27 C6B        5.0652   -5.4806   -0.8298 C.ar      1 RES1    0.0000
     28 H4B        5.2356   -5.9609   -1.6074 H         1 RES1    0.0000
     29 C7B        5.7341   -5.7762    0.3241 C.ar      1 RES1    0.0000
     30 H5B        6.3653   -6.4588    0.3032 H         1 RES1    0.0000
     31 C8B        4.6189   -4.1654    1.4673 C.ar      1 RES1    0.0000
     32 H6B        4.4594   -3.7125    2.2641 H         1 RES1    0.0000
     33 N1B        2.6610   -2.0261    1.6175 N.2       1 RES1    0.0000
     34 N2B        2.1759   -2.3462   -0.5581 N.2       1 RES1    0.0000
     35 N3B        5.5323   -5.1430    1.4732 N.ar      1 RES1    0.0000
     36 O1B        1.3657   -1.3205   -0.0086 O.3       1 RES1    0.0000
@<TRIPOS>BOND
     1    1    2 1
     2    3    1 1
     3    4    1 1
     4    5    6 1
     5    6    7 ar
     6    7    8 1
     7    9    7 ar
     8   10    9 1
     9   11    9 ar
    10   12   11 1
    11   13    6 ar
    12   14   13 1
    13   15    4 2
    14   16    5 2
    15   17   11 ar
    16   18    4 1
    17   19    1 1
    18   20   19 1
    19   21   19 1
    20   22   19 1
    21   23   24 1
    22   24   25 ar
    23   25   26 1
    24   27   25 ar
    25   28   27 1
    26   29   27 ar
    27   30   29 1
    28   31   24 ar
    29   32   31 1
    30   33   22 2
    31   34   23 2
    32   35   29 ar
    33   36   22 1
    34    5   15 1
    35   13   17 ar
    36   16   18 1
    37   23   33 1
    38   31   35 ar
    39   34   36 1
@<TRIPOS>SUBSTRUCTURE
     1 RES1 1

@<TRIPOS>CRYSIN
   4.7910   28.1560    5.7470  90.0000 109.9410  90.0000  14 1

