# MOL2 file generated by ConQuest
# Please check atom types

@<TRIPOS>MOLECULE
YEYFAK
    34    35     1
SMALL
NO_CHARGES
****
Generated from CSD

@<TRIPOS>ATOM
      1 C1         6.6568   11.7425   34.0757 C.ar      1 RES1    0.0000
      2 C2         6.0585   12.6545   33.2470 C.ar      1 RES1    0.0000
      3 H1         5.7965   13.4888   33.5638 H         1 RES1    0.0000
      4 C3         5.8526   12.2994   31.9208 C.ar      1 RES1    0.0000
      5 H2         5.4602   12.9099   31.3393 H         1 RES1    0.0000
      6 C4         6.2233   11.0530   31.4504 C.ar      1 RES1    0.0000
      7 C5         6.8283   10.1737   32.3365 C.ar      1 RES1    0.0000
      8 H3         7.0919    9.3358   32.0313 H         1 RES1    0.0000
      9 C6         7.0507   10.4984   33.6472 C.ar      1 RES1    0.0000
     10 H4         7.4551    9.8965   34.2284 H         1 RES1    0.0000
     11 C7         5.9807   10.5957   30.0359 C.2       1 RES1    0.0000
     12 C8         5.4430   11.5552   29.0755 C.2       1 RES1    0.0000
     13 H5         5.2304   12.4101   29.3759 H         1 RES1    0.0000
     14 C9         5.2438   11.2694   27.8015 C.2       1 RES1    0.0000
     15 H6         5.4580   10.4072   27.5278 H         1 RES1    0.0000
     16 C10        4.7227   12.1681   26.7776 C.ar      1 RES1    0.0000
     17 C11        4.4202   13.4912   27.0607 C.ar      1 RES1    0.0000
     18 H7         4.5639   13.8159   27.9192 H         1 RES1    0.0000
     19 C12        3.9132   14.3315   26.1024 C.ar      1 RES1    0.0000
     20 H8         3.7193   15.2180   26.3108 H         1 RES1    0.0000
     21 C13        3.6931   13.8499   24.8257 C.ar      1 RES1    0.0000
     22 H9         3.3329   14.4142   24.1805 H         1 RES1    0.0000
     23 C14        3.9993   12.5463   24.4946 C.ar      1 RES1    0.0000
     24 H10        3.8638   12.2350   23.6282 H         1 RES1    0.0000
     25 C15        4.5108   11.7096   25.4675 C.ar      1 RES1    0.0000
     26 C16        4.7751    9.9329   23.8913 C.3       1 RES1    0.0000
     27 H11        3.8743   10.0059   23.5675 H         1 RES1    0.0000
     28 H12        5.0522    9.0148   23.8618 H         1 RES1    0.0000
     29 H13        5.3577   10.4607   23.3399 H         1 RES1    0.0000
     30 N1         6.8538   12.1195   35.4914 N.pl3     1 RES1    0.0000
     31 O1         6.2338    9.4441   29.7361 O.2       1 RES1    0.0000
     32 O2         6.5445   13.2322   35.8519 O.2       1 RES1    0.0000
     33 O3         7.3180   11.2731   36.2413 O.2       1 RES1    0.0000
     34 O4         4.8358   10.4072   25.2417 O.3       1 RES1    0.0000
@<TRIPOS>BOND
     1    1    2 ar
     2    2    3 1
     3    4    2 ar
     4    5    4 1
     5    6    4 ar
     6    7    6 ar
     7    8    7 1
     8    9    1 ar
     9   10    9 1
    10   11    6 1
    11   12   11 1
    12   13   12 1
    13   14   12 2
    14   15   14 1
    15   16   14 1
    16   17   16 ar
    17   18   17 1
    18   19   17 ar
    19   20   19 1
    20   21   19 ar
    21   22   21 1
    22   23   21 ar
    23   24   23 1
    24   25   16 ar
    25   26   27 1
    26   28   26 1
    27   29   26 1
    28   30    1 1
    29   31   11 2
    30   32   30 2
    31   33   30 2
    32   34   25 1
    33    7    9 ar
    34   23   25 ar
    35   26   34 1
@<TRIPOS>SUBSTRUCTURE
     1 RES1 1

@<TRIPOS>CRYSIN
   7.4880   12.1608   30.3470  90.0000  90.0000  90.0000  61 1

