# MOL2 file generated by ConQuest
# Please check atom types

@<TRIPOS>MOLECULE
YEYNIA
    58    62     2
SMALL
NO_CHARGES
****
Generated from CSD

@<TRIPOS>ATOM
      1 N1        14.2917    3.1733    6.0260 N.3       1 RES1    0.0000
      2 N2        17.4059    8.1982    1.8327 N.pl3     1 RES1    0.0000
      3 O1        13.7363    7.8189    6.6596 O.2       1 RES1    0.0000
      4 O2        13.4161    5.2645    1.8920 O.2       1 RES1    0.0000
      5 O3        18.4971    8.6604    1.5958 O.2       1 RES1    0.0000
      6 O4        16.5011    8.1928    0.9693 O.2       1 RES1    0.0000
      7 O5        16.4909    9.0190    1.7412 Du        2 SUP2    0.0000
      8 C1        14.1345    4.3131    6.8373 C.2       1 RES1    0.0000
      9 C2        13.9672    4.0707    8.3092 C.3       1 RES1    0.0000
     10 H1        14.5993    3.3905    8.5857 H         1 RES1    0.0000
     11 H2        13.0743    3.7238    8.4672 H         1 RES1    0.0000
     12 C3        14.1700    5.3060    9.1745 C.3       1 RES1    0.0000
     13 C4        13.3668    6.4376    8.5588 C.3       1 RES1    0.0000
     14 H3        12.4212    6.2232    8.6162 H         1 RES1    0.0000
     15 H4        13.5179    7.2485    9.0703 H         1 RES1    0.0000
     16 C5        13.7261    6.6836    7.1353 C.2       1 RES1    0.0000
     17 C6        14.0435    5.5357    6.3006 C.2       1 RES1    0.0000
     18 C7        14.2815    5.8042    4.8323 C.3       1 RES1    0.0000
     19 H5        13.6465    6.4917    4.5432 H         1 RES1    0.0000
     20 C8        13.9569    4.5519    4.1160 C.2       1 RES1    0.0000
     21 C9        13.5834    4.3735    2.7195 C.2       1 RES1    0.0000
     22 C10       13.4156    2.9183    2.5023 C.ar      1 RES1    0.0000
     23 C11       13.0501    2.2327    1.3624 C.ar      1 RES1    0.0000
     24 H6        12.9226    2.6706    0.5511 H         1 RES1    0.0000
     25 C12       12.8772    0.8686    1.4773 C.ar      1 RES1    0.0000
     26 H7        12.6212    0.3820    0.7270 H         1 RES1    0.0000
     27 C13       13.0701    0.2108    2.6567 C.ar      1 RES1    0.0000
     28 H8        12.9306   -0.7073    2.7033 H         1 RES1    0.0000
     29 C14       13.4753    0.9109    3.7965 C.ar      1 RES1    0.0000
     30 H9        13.6233    0.4667    4.5989 H         1 RES1    0.0000
     31 C15       13.6530    2.2660    3.7032 C.ar      1 RES1    0.0000
     32 C16       14.0102    3.3238    4.6886 C.2       1 RES1    0.0000
     33 C17       14.6783    1.8930    6.5734 C.3       1 RES1    0.0000
     34 H10       13.9573    1.3353    6.9360 H         1 RES1    0.0000
     35 C18       15.8158    1.1785    5.9218 C.3       1 RES1    0.0000
     36 H11       15.7753    0.2099    5.8770 H         1 RES1    0.0000
     37 H12       16.2428    1.6047    5.1625 H         1 RES1    0.0000
     38 C19       16.0014    1.7975    7.2538 C.3       1 RES1    0.0000
     39 H13       16.5395    2.6021    7.3058 H         1 RES1    0.0000
     40 H14       16.0755    1.2073    8.0185 H         1 RES1    0.0000
     41 C20       13.6461    5.0195   10.5872 C.3       1 RES1    0.0000
     42 H15       14.1563    4.3077   10.9803 H         1 RES1    0.0000
     43 H16       12.7227    4.7627   10.5405 H         1 RES1    0.0000
     44 H17       13.7323    5.8087   11.1275 H         1 RES1    0.0000
     45 C21       15.6260    5.6907    9.2588 C.3       1 RES1    0.0000
     46 H18       16.1286    4.9636    9.6358 H         1 RES1    0.0000
     47 H19       15.7198    6.4674    9.8153 H         1 RES1    0.0000
     48 H20       15.9587    5.8844    8.3793 H         1 RES1    0.0000
     49 C22       15.6797    6.2944    4.5127 C.ar      1 RES1    0.0000
     50 C23       15.9059    7.0305    3.3711 C.ar      1 RES1    0.0000
     51 H21       15.1983    7.2395    2.8056 H         1 RES1    0.0000
     52 C24       17.1726    7.4558    3.0695 C.ar      1 RES1    0.0000
     53 C25       18.2501    7.1657    3.8557 C.ar      1 RES1    0.0000
     54 H22       19.1036    7.4648    3.6350 H         1 RES1    0.0000
     55 C26       18.0312    6.4169    4.9794 C.ar      1 RES1    0.0000
     56 H23       18.7442    6.2016    5.5377 H         1 RES1    0.0000
     57 C27       16.7599    5.9799    5.2936 C.ar      1 RES1    0.0000
     58 H24       16.6348    5.4583    6.0529 H         1 RES1    0.0000
@<TRIPOS>BOND
     1    1    8 1
     2    2    5 2
     3    3   16 2
     4    4   21 2
     5    6    2 2
     6    8    9 1
     7    9   10 1
     8   11    9 1
     9   12    9 1
    10   13   12 1
    11   14   13 1
    12   15   13 1
    13   16   13 1
    14   17    8 2
    15   18   17 1
    16   19   18 1
    17   20   18 1
    18   21   20 1
    19   22   21 1
    20   23   22 ar
    21   24   23 1
    22   25   23 ar
    23   26   25 1
    24   27   25 ar
    25   28   27 1
    26   29   27 ar
    27   30   29 1
    28   31   22 ar
    29   32    1 1
    30   33    1 1
    31   34   33 1
    32   35   33 1
    33   36   35 1
    34   37   35 1
    35   38   33 1
    36   39   38 1
    37   40   38 1
    38   41   12 1
    39   42   41 1
    40   43   41 1
    41   44   41 1
    42   45   12 1
    43   46   45 1
    44   47   45 1
    45   48   45 1
    46   49   18 1
    47   50   49 ar
    48   51   50 1
    49   52    2 1
    50   53   52 ar
    51   54   53 1
    52   55   53 ar
    53   56   55 1
    54   57   49 ar
    55   58   57 1
    56   16   17 1
    57   20   32 2
    58   29   31 ar
    59   31   32 1
    60   35   38 1
    61   50   52 ar
    62   55   57 ar
@<TRIPOS>SUBSTRUCTURE
     1 RES1 1
     2 SUP2 7

@<TRIPOS>CRYSIN
  27.1870    9.0100   19.1330  90.0000 110.2500  90.0000  15 1

