# MOL2 file generated by ConQuest
# Please check atom types

@<TRIPOS>MOLECULE
YEYNAS
    44    44     2
SMALL
NO_CHARGES
****
Generated from CSD

@<TRIPOS>ATOM
      1 O1         0.5842   -1.4650    0.3991 O.2       1 RES1    0.0000
      2 O2         0.4718   -0.8655    0.6005 Du        2 SUP2    0.0000
      3 O3         0.4193   -1.6531    2.5419 O.2       1 RES1    0.0000
      4 O4         0.8133   -2.1689    2.2007 Du        2 SUP2    0.0000
      5 O5        -0.5628    0.7382    7.8647 O.2       1 RES1    0.0000
      6 O6         0.9408   -0.4414    8.8675 O.2       1 RES1    0.0000
      7 N1         3.9105    2.4088    2.9539 N.3       1 RES1    0.0000
      8 N2         1.6102    2.3620    3.7210 N.3       1 RES1    0.0000
      9 N3         1.0182   -1.3308    1.5282 N.pl3     1 RES1    0.0000
     10 N4         1.2045   -1.2423    1.5115 Du        2 SUP2    0.0000
     11 N5         0.6038    0.3914    8.0307 N.pl3     1 RES1    0.0000
     12 C1         3.7230    1.0877    2.4314 C.ar      1 RES1    0.0000
     13 C2         4.8435    0.3674    2.0080 C.ar      1 RES1    0.0000
     14 H1         5.7086    0.7465    2.1120 H         1 RES1    0.0000
     15 C3         4.7154   -0.8857    1.4410 C.ar      1 RES1    0.0000
     16 H2         5.4955   -1.3602    1.1773 H         1 RES1    0.0000
     17 C4         3.4644   -1.4674    1.2471 C.ar      1 RES1    0.0000
     18 C5         3.3194   -2.8326    0.6261 C.3       1 RES1    0.0000
     19 H3         2.8038   -3.4109    1.2259 H         1 RES1    0.0000
     20 H4         4.2073   -3.2213    0.4798 H         1 RES1    0.0000
     21 H5         2.8528   -2.7534   -0.2316 H         1 RES1    0.0000
     22 C6         2.3760   -0.7292    1.6904 C.ar      1 RES1    0.0000
     23 C7         2.4479    0.5198    2.3071 C.ar      1 RES1    0.0000
     24 C8         1.2209    1.2351    2.8607 C.3       1 RES1    0.0000
     25 H6         0.6678    1.5696    2.1106 H         1 RES1    0.0000
     26 H7         0.6745    0.5960    3.3822 H         1 RES1    0.0000
     27 C9         2.6397    3.1335    3.0157 C.3       1 RES1    0.0000
     28 H8         2.3299    3.3284    2.0967 H         1 RES1    0.0000
     29 H9         2.7777    3.9965    3.4807 H         1 RES1    0.0000
     30 C10        2.0949    1.9258    5.0010 C.ar      1 RES1    0.0000
     31 C11        1.1865    1.4156    5.9223 C.ar      1 RES1    0.0000
     32 H10        0.2631    1.3667    5.7050 H         1 RES1    0.0000
     33 C12        1.6356    0.9787    7.1582 C.ar      1 RES1    0.0000
     34 C13        2.9736    1.0720    7.5719 C.ar      1 RES1    0.0000
     35 C14        3.4995    0.6766    8.9268 C.3       1 RES1    0.0000
     36 H11        4.4349    0.9574    9.0082 H         1 RES1    0.0000
     37 H12        3.4403   -0.2964    9.0290 H         1 RES1    0.0000
     38 H13        2.9653    1.1118    9.6239 H         1 RES1    0.0000
     39 C15        3.8496    1.5972    6.6218 C.ar      1 RES1    0.0000
     40 H14        4.7652    1.6914    6.8574 H         1 RES1    0.0000
     41 C16        3.4536    1.9912    5.3443 C.ar      1 RES1    0.0000
     42 C17        4.4827    2.4130    4.3115 C.3       1 RES1    0.0000
     43 H15        4.8108    3.3219    4.5263 H         1 RES1    0.0000
     44 H16        5.2542    1.7933    4.3446 H         1 RES1    0.0000
@<TRIPOS>BOND
     1    1    9 2
     2    3    9 2
     3    5   11 2
     4    6   11 2
     5    7   12 1
     6    8   24 1
     7    9   22 1
     8   11   33 1
     9   12   13 ar
    10   13   14 1
    11   15   13 ar
    12   16   15 1
    13   17   15 ar
    14   18   17 1
    15   19   18 1
    16   20   18 1
    17   21   18 1
    18   22   17 ar
    19   23   12 ar
    20   24   23 1
    21   25   24 1
    22   26   24 1
    23   27    7 1
    24   28   27 1
    25   29   27 1
    26   30    8 1
    27   31   30 ar
    28   32   31 1
    29   33   31 ar
    30   34   33 ar
    31   35   34 1
    32   36   35 1
    33   37   35 1
    34   38   35 1
    35   39   34 ar
    36   40   39 1
    37   41   30 ar
    38   42    7 1
    39   43   42 1
    40   44   42 1
    41    8   27 1
    42   22   23 ar
    43   39   41 ar
    44   41   42 1
@<TRIPOS>SUBSTRUCTURE
     1 RES1 1
     2 SUP2 2

@<TRIPOS>CRYSIN
   7.5260    8.0570   13.9320  92.9440  92.9300 115.6490   2 1

