# MOL2 file generated by ConQuest
# Please check atom types

@<TRIPOS>MOLECULE
YEYVEF
    58    59     1
SMALL
NO_CHARGES
****
Generated from CSD

@<TRIPOS>ATOM
      1 C1        11.2382    2.0373    4.3665 C.3       1 RES1    0.0000
      2 H1        10.7396    1.1753    4.2769 H         1 RES1    0.0000
      3 C2        12.5956    1.9967    3.6448 C.3       1 RES1    0.0000
      4 H2        13.0518    1.1426    3.8945 H         1 RES1    0.0000
      5 C3        13.3861    3.1594    4.2769 C.3       1 RES1    0.0000
      6 H3        13.3229    3.9708    3.7142 H         1 RES1    0.0000
      7 H4        14.3392    2.9166    4.3808 H         1 RES1    0.0000
      8 C4        12.7302    3.4016    5.6578 C.3       1 RES1    0.0000
      9 H5        13.4042    3.3315    6.3793 H         1 RES1    0.0000
     10 H6        12.3205    4.3025    5.6939 H         1 RES1    0.0000
     11 C5        11.6544    2.3158    5.8194 C.3       1 RES1    0.0000
     12 H7        12.1093    1.4939    6.1628 H         1 RES1    0.0000
     13 C6        12.5233    2.0641    2.1285 C.3       1 RES1    0.0000
     14 H8        12.1060    2.9293    1.8513 H         1 RES1    0.0000
     15 C7        13.8872    1.9230    1.4689 C.3       1 RES1    0.0000
     16 H9        13.7796    1.9156    0.4949 H         1 RES1    0.0000
     17 H10       14.3042    1.0847    1.7575 H         1 RES1    0.0000
     18 H11       14.4558    2.6781    1.7287 H         1 RES1    0.0000
     19 C8        11.0243    1.0700    0.5498 C.2       1 RES1    0.0000
     20 C9        10.1628   -0.1206    0.2756 C.3       1 RES1    0.0000
     21 H12        9.6575    0.0258   -0.5527 H         1 RES1    0.0000
     22 H13        9.5394   -0.2506    1.0202 H         1 RES1    0.0000
     23 H14       10.7250   -0.9162    0.1775 H         1 RES1    0.0000
     24 C10       10.5223    2.6539    6.7911 C.3       1 RES1    0.0000
     25 H15       10.0114    3.4247    6.4110 H         1 RES1    0.0000
     26 C11       11.0589    3.0746    8.1613 C.3       1 RES1    0.0000
     27 H16       11.5733    3.9039    8.0704 H         1 RES1    0.0000
     28 H17       11.6385    2.3685    8.5163 H         1 RES1    0.0000
     29 H18       10.3101    3.2210    8.7760 H         1 RES1    0.0000
     30 C12        9.5613    1.4717    6.9247 C.3       1 RES1    0.0000
     31 H19       10.0491    0.6898    7.2580 H         1 RES1    0.0000
     32 H20        9.1740    1.2653    6.0489 H         1 RES1    0.0000
     33 H21        8.8447    1.7024    7.5524 H         1 RES1    0.0000
     34 C13        8.4468    3.9281    3.6652 C.2       1 RES1    0.0000
     35 H22        8.9181    4.7464    3.5598 H         1 RES1    0.0000
     36 C14        6.9777    3.9381    3.5618 C.ar      1 RES1    0.0000
     37 C15        6.3970    4.8428    2.6562 C.ar      1 RES1    0.0000
     38 C16        5.0202    4.9028    2.4559 C.ar      1 RES1    0.0000
     39 H23        4.6434    5.5215    1.8412 H         1 RES1    0.0000
     40 C17        4.2169    4.0403    3.1745 C.ar      1 RES1    0.0000
     41 H24        3.2755    4.0661    3.0417 H         1 RES1    0.0000
     42 C18        4.7445    3.1357    4.0864 C.ar      1 RES1    0.0000
     43 H25        4.1690    2.5543    4.5698 H         1 RES1    0.0000
     44 C19        6.1171    3.0841    4.2880 C.ar      1 RES1    0.0000
     45 C20        6.8150    6.7010    1.1875 C.3       1 RES1    0.0000
     46 H26        6.2120    7.2492    1.7315 H         1 RES1    0.0000
     47 H27        6.3314    6.3587    0.4069 H         1 RES1    0.0000
     48 H28        7.5715    7.2476    0.8874 H         1 RES1    0.0000
     49 C21        5.9022    1.3217    5.8800 C.3       1 RES1    0.0000
     50 H29        5.4476    0.7461    5.2293 H         1 RES1    0.0000
     51 H30        5.2344    1.8029    6.4110 H         1 RES1    0.0000
     52 H31        6.4562    0.7709    6.4716 H         1 RES1    0.0000
     53 N1         9.1082    2.8634    3.8916 N.2       1 RES1    0.0000
     54 O1        11.6672    0.9547    1.7240 O.3       1 RES1    0.0000
     55 O2        11.1430    2.0257   -0.1877 O.2       1 RES1    0.0000
     56 O3        10.4954    3.1462    3.8430 O.3       1 RES1    0.0000
     57 O4         7.2988    5.6052    1.9669 O.3       1 RES1    0.0000
     58 O5         6.7284    2.2595    5.1909 O.3       1 RES1    0.0000
@<TRIPOS>BOND
     1    1    2 1
     2    3    1 1
     3    4    3 1
     4    5    3 1
     5    6    5 1
     6    7    5 1
     7    8    5 1
     8    9    8 1
     9   10    8 1
    10   11    1 1
    11   12   11 1
    12   13    3 1
    13   14   13 1
    14   15   13 1
    15   16   15 1
    16   17   15 1
    17   18   15 1
    18   19   20 1
    19   20   21 1
    20   22   20 1
    21   23   20 1
    22   24   11 1
    23   25   24 1
    24   26   24 1
    25   27   26 1
    26   28   26 1
    27   29   26 1
    28   30   24 1
    29   31   30 1
    30   32   30 1
    31   33   30 1
    32   34   35 1
    33   36   34 1
    34   37   36 ar
    35   38   37 ar
    36   39   38 1
    37   40   38 ar
    38   41   40 1
    39   42   40 ar
    40   43   42 1
    41   44   36 ar
    42   45   46 1
    43   47   45 1
    44   48   45 1
    45   49   50 1
    46   51   49 1
    47   52   49 1
    48   53   34 2
    49   54   13 1
    50   55   19 2
    51   56    1 1
    52   57   37 1
    53   58   44 1
    54    8   11 1
    55   19   54 1
    56   42   44 ar
    57   45   57 1
    58   49   58 1
    59   53   56 1
@<TRIPOS>SUBSTRUCTURE
     1 RES1 1

@<TRIPOS>CRYSIN
  13.5787    5.2656   14.4350  90.0000  91.5790  90.0000   4 1

