# MOL2 file generated by ConQuest
# Please check atom types

@<TRIPOS>MOLECULE
YEZNAT
    54    58     1
SMALL
NO_CHARGES
****
Generated from CSD

@<TRIPOS>ATOM
      1 O1         6.3223    4.4159   12.2564 O.2       1 RES1    0.0000
      2 O2         5.2336    2.4855   12.3541 O.3       1 RES1    0.0000
      3 O3         2.6000    4.2797   18.2141 O.3       1 RES1    0.0000
      4 O4         2.6020    5.9340   19.7383 O.2       1 RES1    0.0000
      5 O5         2.6922    1.0663   24.6505 O.2       1 RES1    0.0000
      6 O6         2.6836   -0.4601   23.1482 O.2       1 RES1    0.0000
      7 N1         2.6731    0.7134   23.4799 N.pl3     1 RES1    0.0000
      8 C1         2.6191    5.2380   17.1450 C.3       1 RES1    0.0000
      9 C2         1.5225    6.2876   16.9250 C.3       1 RES1    0.0000
     10 C3         2.0622    6.2047   15.4826 C.3       1 RES1    0.0000
     11 C4         2.3268    4.6904   15.7295 C.3       1 RES1    0.0000
     12 C5         3.8895    6.0549   16.9583 C.3       1 RES1    0.0000
     13 C6         3.5676    6.5873   15.5243 C.3       1 RES1    0.0000
     14 C7         4.2304    5.6024   14.5610 C.3       1 RES1    0.0000
     15 C8         4.0277    5.8495   13.0524 C.3       1 RES1    0.0000
     16 C9         3.9171    4.4493   12.4456 C.3       1 RES1    0.0000
     17 C10        3.0311    3.7390   13.4700 C.3       1 RES1    0.0000
     18 C11        3.4926    4.2554   14.8526 C.3       1 RES1    0.0000
     19 C12        3.9138    8.0552   15.3098 C.3       1 RES1    0.0000
     20 C13        5.2882    3.8211   12.3457 C.2       1 RES1    0.0000
     21 C14        3.3030    4.4349   11.0351 C.3       1 RES1    0.0000
     22 C15        6.4855    1.7889   12.1860 C.3       1 RES1    0.0000
     23 C16        2.6033    4.7619   19.4711 C.2       1 RES1    0.0000
     24 C17        2.6198    3.6667   20.4846 C.ar      1 RES1    0.0000
     25 C18        2.6270    4.0401   21.8322 C.ar      1 RES1    0.0000
     26 C19        2.6454    3.0719   22.8120 C.ar      1 RES1    0.0000
     27 C20        2.6481    1.7409   22.4331 C.ar      1 RES1    0.0000
     28 C21        2.6395    1.3394   21.1112 C.ar      1 RES1    0.0000
     29 C22        2.6257    2.3190   20.1361 C.ar      1 RES1    0.0000
     30 H1         1.6535    7.1623   17.3919 H         1 RES1    0.0000
     31 H2         0.5825    5.9750   17.0607 H         1 RES1    0.0000
     32 H3         1.4909    6.4960   14.7152 H         1 RES1    0.0000
     33 H4         1.5166    4.1086   15.6659 H         1 RES1    0.0000
     34 H5         3.9724    6.7911   17.6296 H         1 RES1    0.0000
     35 H6         4.7136    5.4898   16.9802 H         1 RES1    0.0000
     36 H7         5.2040    5.5157   14.7704 H         1 RES1    0.0000
     37 H8         4.8097    6.3401   12.6672 H         1 RES1    0.0000
     38 H9         3.1918    6.3728   12.8885 H         1 RES1    0.0000
     39 H10        2.0688    3.9656   13.3162 H         1 RES1    0.0000
     40 H11        3.1536    2.7487   13.4097 H         1 RES1    0.0000
     41 H12        4.0850    3.5975   15.3182 H         1 RES1    0.0000
     42 H13        4.9051    8.1746   15.3587 H         1 RES1    0.0000
     43 H14        3.4755    8.6081   16.0186 H         1 RES1    0.0000
     44 H15        3.5867    8.3457   14.4105 H         1 RES1    0.0000
     45 H16        3.2602    3.4941   10.7001 H         1 RES1    0.0000
     46 H17        2.3808    4.8197   11.0697 H         1 RES1    0.0000
     47 H18        3.8697    4.9825   10.4195 H         1 RES1    0.0000
     48 H19        6.3230    0.8024   12.2092 H         1 RES1    0.0000
     49 H20        7.1095    2.0414   12.9255 H         1 RES1    0.0000
     50 H21        6.8910    2.0398   11.3074 H         1 RES1    0.0000
     51 H22        2.6198    5.0084   22.0842 H         1 RES1    0.0000
     52 H23        2.6560    3.3260   23.7791 H         1 RES1    0.0000
     53 H24        2.6428    0.3696   20.8672 H         1 RES1    0.0000
     54 H25        2.6204    2.0566   19.1711 H         1 RES1    0.0000
@<TRIPOS>BOND
     1    1   20 2
     2    2   20 1
     3    3    8 1
     4    4   23 2
     5    5    7 2
     6    6    7 2
     7    7   27 1
     8    8    9 1
     9    9   10 1
    10   10   11 1
    11   11    8 1
    12   12    8 1
    13   13   10 1
    14   14   13 1
    15   15   14 1
    16   16   15 1
    17   17   16 1
    18   18   11 1
    19   19   13 1
    20   20   16 1
    21   21   16 1
    22   22    2 1
    23   23    3 1
    24   24   23 1
    25   25   24 ar
    26   26   25 ar
    27   27   26 ar
    28   28   27 ar
    29   29   24 ar
    30   30    9 1
    31   31    9 1
    32   32   10 1
    33   33   11 1
    34   34   12 1
    35   35   12 1
    36   36   14 1
    37   37   15 1
    38   38   15 1
    39   39   17 1
    40   40   17 1
    41   41   18 1
    42   42   19 1
    43   43   19 1
    44   44   19 1
    45   45   21 1
    46   46   21 1
    47   47   21 1
    48   48   22 1
    49   49   22 1
    50   50   22 1
    51   51   25 1
    52   52   26 1
    53   53   28 1
    54   54   29 1
    55   12   13 1
    56   14   18 1
    57   17   18 1
    58   28   29 ar
@<TRIPOS>SUBSTRUCTURE
     1 RES1 1

@<TRIPOS>CRYSIN
   6.5823    7.6057   42.1398  90.0000  90.0000  90.0000  19 1

