# MOL2 file generated by ConQuest
# Please check atom types

@<TRIPOS>MOLECULE
YEZQOL
    63    64     1
SMALL
NO_CHARGES
****
Generated from CSD

@<TRIPOS>ATOM
      1 N1         6.2556    5.7257    1.4179 N.pl3     1 RES1    0.0000
      2 N2         0.6080    3.2365    3.1760 N.am      1 RES1    0.0000
      3 O1         6.7835    5.3539    0.4025 O.2       1 RES1    0.0000
      4 O2         6.6117    6.6828    2.0068 O.2       1 RES1    0.0000
      5 O3         0.4202    3.2083    1.7787 O.3       1 RES1    0.0000
      6 O4        -0.3336    2.5862    5.1040 O.2       1 RES1    0.0000
      7 C1         5.1143    4.9579    1.9447 C.ar      1 RES1    0.0000
      8 C2         4.5024    5.3758    3.0958 C.ar      1 RES1    0.0000
      9 H1         4.7722    6.1552    3.5269 H         1 RES1    0.0000
     10 C3         3.4736    4.6069    3.5983 C.ar      1 RES1    0.0000
     11 H2         3.0565    4.8678    4.3878 H         1 RES1    0.0000
     12 C4         3.0488    3.4635    2.9623 C.ar      1 RES1    0.0000
     13 C5         3.6795    3.0928    1.7880 C.ar      1 RES1    0.0000
     14 H3         3.3966    2.3300    1.3389 H         1 RES1    0.0000
     15 C6         4.7171    3.8356    1.2755 C.ar      1 RES1    0.0000
     16 H4         5.1390    3.5781    0.4880 H         1 RES1    0.0000
     17 C7         1.9103    2.6595    3.5574 C.3       1 RES1    0.0000
     18 H5         1.9838    2.7329    4.5326 H         1 RES1    0.0000
     19 C8         1.9219    1.1668    3.2174 C.3       1 RES1    0.0000
     20 H6         1.1646    0.7493    3.6578 H         1 RES1    0.0000
     21 H7         1.7876    1.0726    2.2613 H         1 RES1    0.0000
     22 C9         3.1569    0.4099    3.5939 C.2       1 RES1    0.0000
     23 C10        3.7129   -0.4999    2.8159 C.2       1 RES1    0.0000
     24 H8         4.4513   -0.9387    3.1718 H         1 RES1    0.0000
     25 C11        3.3119   -0.9214    1.4377 C.3       1 RES1    0.0000
     26 H9         4.0904   -0.8856    0.8589 H         1 RES1    0.0000
     27 H10        2.6582   -0.2933    1.0930 H         1 RES1    0.0000
     28 C12        2.7227   -2.3254    1.3858 C.3       1 RES1    0.0000
     29 H11        2.5742   -2.5632    0.4562 H         1 RES1    0.0000
     30 H12        3.3750   -2.9465    1.7456 H         1 RES1    0.0000
     31 C13        1.4192   -2.5066    2.1413 C.3       1 RES1    0.0000
     32 H13        1.2079   -3.4534    2.1582 H         1 RES1    0.0000
     33 H14        1.5589   -2.2238    3.0587 H         1 RES1    0.0000
     34 C14        0.2219   -1.7665    1.5968 C.3       1 RES1    0.0000
     35 H15        0.0993   -2.0044    0.6645 H         1 RES1    0.0000
     36 H16        0.3933   -0.8117    1.6404 H         1 RES1    0.0000
     37 C15       -1.0558   -2.0760    2.3611 C.3       1 RES1    0.0000
     38 H17       -1.2192   -3.0308    2.3050 H         1 RES1    0.0000
     39 H18       -0.9098   -1.8624    3.2968 H         1 RES1    0.0000
     40 C16       -2.2970   -1.3567    1.9003 C.3       1 RES1    0.0000
     41 H19       -3.0605   -1.7723    2.3327 H         1 RES1    0.0000
     42 H20       -2.3911   -1.5033    0.9462 H         1 RES1    0.0000
     43 C17       -2.3748    0.1455    2.1542 C.3       1 RES1    0.0000
     44 H21       -1.6130    0.5715    1.7297 H         1 RES1    0.0000
     45 H22       -3.1763    0.4907    1.7317 H         1 RES1    0.0000
     46 C18       -2.3929    0.5219    3.5808 C.3       1 RES1    0.0000
     47 H23       -1.5067    0.3752    3.9474 H         1 RES1    0.0000
     48 H24       -3.0007   -0.0739    4.0466 H         1 RES1    0.0000
     49 C19       -2.8112    1.9790    3.8871 C.3       1 RES1    0.0000
     50 H25       -3.6964    2.1325    3.5209 H         1 RES1    0.0000
     51 H26       -2.8664    2.0921    4.8479 H         1 RES1    0.0000
     52 C20       -1.8618    3.0285    3.3253 C.3       1 RES1    0.0000
     53 H27       -1.7908    2.9165    2.3645 H         1 RES1    0.0000
     54 H28       -2.2191    3.9129    3.4991 H         1 RES1    0.0000
     55 C21       -0.4921    2.9103    3.9460 C.2       1 RES1    0.0000
     56 C22        0.4061    4.5422    1.2546 C.3       1 RES1    0.0000
     57 H29       -0.3468    5.0190    1.6127 H         1 RES1    0.0000
     58 H30        0.3379    4.5099    0.2975 H         1 RES1    0.0000
     59 H31        1.2171    4.9925    1.5036 H         1 RES1    0.0000
     60 C23        3.6983    0.6939    4.9654 C.3       1 RES1    0.0000
     61 H32        4.4065    0.0774    5.1633 H         1 RES1    0.0000
     62 H33        2.9963    0.5946    5.6136 H         1 RES1    0.0000
     63 H34        4.0362    1.5922    4.9967 H         1 RES1    0.0000
@<TRIPOS>BOND
     1    1    3 2
     2    2    5 1
     3    4    1 2
     4    5   56 1
     5    6   55 2
     6    7    1 1
     7    8    7 ar
     8    9    8 1
     9   10    8 ar
    10   11   10 1
    11   12   10 ar
    12   13   12 ar
    13   14   13 1
    14   15    7 ar
    15   16   15 1
    16   17    2 1
    17   18   17 1
    18   19   17 1
    19   20   19 1
    20   21   19 1
    21   22   19 1
    22   23   22 2
    23   24   23 1
    24   25   23 1
    25   26   25 1
    26   27   25 1
    27   28   25 1
    28   29   28 1
    29   30   28 1
    30   31   28 1
    31   32   31 1
    32   33   31 1
    33   34   31 1
    34   35   34 1
    35   36   34 1
    36   37   34 1
    37   38   37 1
    38   39   37 1
    39   40   37 1
    40   41   40 1
    41   42   40 1
    42   43   40 1
    43   44   43 1
    44   45   43 1
    45   46   43 1
    46   47   46 1
    47   48   46 1
    48   49   46 1
    49   50   49 1
    50   51   49 1
    51   52   49 1
    52   53   52 1
    53   54   52 1
    54   55    2 1
    55   56   57 1
    56   58   56 1
    57   59   56 1
    58   60   22 1
    59   61   60 1
    60   62   60 1
    61   63   60 1
    62   12   17 1
    63   13   15 ar
    64   52   55 1
@<TRIPOS>SUBSTRUCTURE
     1 RES1 1

@<TRIPOS>CRYSIN
   9.8490   11.5460   19.9150  90.0000  95.1010  90.0000 231 1

