# MOL2 file generated by ConQuest
# Please check atom types

@<TRIPOS>MOLECULE
YEZRIH
    54    57     1
SMALL
NO_CHARGES
****
Generated from CSD

@<TRIPOS>ATOM
      1 O1        -3.1980   -3.6189   -0.8112 O.2       1 RES1    0.0000
      2 N1        -6.5794   -8.5198   -7.3614 N.pl3     1 RES1    0.0000
      3 H1        -7.3252   -8.2753   -7.7116 H         1 RES1    0.0000
      4 H2        -5.9908   -8.9233   -7.8415 H         1 RES1    0.0000
      5 N2        -4.0643   -7.7793    6.6215 N.pl3     1 RES1    0.0000
      6 H3        -3.2259   -7.6081    6.8085 H         1 RES1    0.0000
      7 H4        -4.5533   -7.1435    6.9717 H         1 RES1    0.0000
      8 N3        -3.7569   -4.7647   -0.7098 N.3       1 RES1    0.0000
      9 C1        -4.9428   -8.6054   -4.0974 C.ar      1 RES1    0.0000
     10 H5        -4.1656   -8.9617   -3.7314 H         1 RES1    0.0000
     11 C2        -5.1804   -8.7643   -5.4522 C.ar      1 RES1    0.0000
     12 H6        -4.5603   -9.2115   -5.9830 H         1 RES1    0.0000
     13 C3        -6.3244   -8.2666   -6.0146 C.ar      1 RES1    0.0000
     14 C4        -7.2169   -7.6343   -5.2066 C.ar      1 RES1    0.0000
     15 H7        -7.9976   -7.2972   -5.5821 H         1 RES1    0.0000
     16 C5        -7.0178   -7.4754   -3.8867 C.ar      1 RES1    0.0000
     17 H8        -7.6692   -7.0579   -3.3686 H         1 RES1    0.0000
     18 C6        -5.8248   -7.9347   -3.2751 C.ar      1 RES1    0.0000
     19 C7        -5.5751   -7.7705   -1.7889 C.ar      1 RES1    0.0000
     20 C8        -6.0571   -8.7556   -0.9523 C.ar      1 RES1    0.0000
     21 H9        -6.5741   -9.4420   -1.3088 H         1 RES1    0.0000
     22 C9        -5.7917   -8.7469    0.4056 C.ar      1 RES1    0.0000
     23 H10       -6.1043   -9.4455    0.9348 H         1 RES1    0.0000
     24 C10       -5.0791   -7.7391    0.9840 C.ar      1 RES1    0.0000
     25 C11       -4.6564   -6.6964    0.1648 C.ar      1 RES1    0.0000
     26 C12       -4.8922   -6.7278   -1.1979 C.ar      1 RES1    0.0000
     27 C13       -4.3088   -5.4493   -1.9045 C.3       1 RES1    0.0000
     28 C14       -3.9211   -5.4423    0.6037 C.3       1 RES1    0.0000
     29 C15       -4.8013   -7.7740    2.4639 C.ar      1 RES1    0.0000
     30 C16       -5.7043   -7.2885    3.3765 C.ar      1 RES1    0.0000
     31 H11       -6.5130   -6.9427    3.0691 H         1 RES1    0.0000
     32 C17       -5.4476   -7.2972    4.7661 C.ar      1 RES1    0.0000
     33 H12       -6.0764   -6.9531    5.3603 H         1 RES1    0.0000
     34 C18       -4.2599   -7.8212    5.2367 C.ar      1 RES1    0.0000
     35 C19       -3.4128   -8.4290    4.3319 C.ar      1 RES1    0.0000
     36 H13       -2.6635   -8.8814    4.6473 H         1 RES1    0.0000
     37 C20       -3.6486   -8.3836    2.9851 C.ar      1 RES1    0.0000
     38 H14       -3.0321   -8.7643    2.4021 H         1 RES1    0.0000
     39 C21       -3.2294   -5.7131   -2.8885 C.3       1 RES1    0.0000
     40 H15       -2.5256   -6.2091   -2.4654 H         1 RES1    0.0000
     41 H16       -2.8836   -4.8782   -3.2133 H         1 RES1    0.0000
     42 H17       -3.5840   -6.2196   -3.6221 H         1 RES1    0.0000
     43 C22       -5.4161   -4.5935   -2.4987 C.3       1 RES1    0.0000
     44 H18       -5.8563   -5.0808   -3.1990 H         1 RES1    0.0000
     45 H19       -5.0389   -3.7866   -2.8584 H         1 RES1    0.0000
     46 H20       -6.0519   -4.3734   -1.8142 H         1 RES1    0.0000
     47 C23       -2.5535   -5.6677    1.2438 C.3       1 RES1    0.0000
     48 H21       -2.6688   -6.0047    2.1359 H         1 RES1    0.0000
     49 H22       -2.0732   -4.8363    1.2755 H         1 RES1    0.0000
     50 H23       -2.0575   -6.3034    0.7241 H         1 RES1    0.0000
     51 C24       -4.7874   -4.5184    1.4831 C.3       1 RES1    0.0000
     52 H24       -5.7096   -4.6092    1.2295 H         1 RES1    0.0000
     53 H25       -4.5114   -3.6067    1.3595 H         1 RES1    0.0000
     54 H26       -4.6826   -4.7629    2.4052 H         1 RES1    0.0000
@<TRIPOS>BOND
     1    1    8 1
     2    2    3 1
     3    4    2 1
     4    5    6 1
     5    7    5 1
     6    8   27 1
     7    9   10 1
     8   11    9 ar
     9   12   11 1
    10   13    2 1
    11   14   13 ar
    12   15   14 1
    13   16   14 ar
    14   17   16 1
    15   18    9 ar
    16   19   18 1
    17   20   19 ar
    18   21   20 1
    19   22   20 ar
    20   23   22 1
    21   24   22 ar
    22   25   24 ar
    23   26   19 ar
    24   27   26 1
    25   28    8 1
    26   29   24 1
    27   30   29 ar
    28   31   30 1
    29   32   30 ar
    30   33   32 1
    31   34    5 1
    32   35   34 ar
    33   36   35 1
    34   37   29 ar
    35   38   37 1
    36   39   27 1
    37   40   39 1
    38   41   39 1
    39   42   39 1
    40   43   27 1
    41   44   43 1
    42   45   43 1
    43   46   43 1
    44   47   28 1
    45   48   47 1
    46   49   47 1
    47   50   47 1
    48   51   28 1
    49   52   51 1
    50   53   51 1
    51   54   51 1
    52   11   13 ar
    53   16   18 ar
    54   25   26 ar
    55   25   28 1
    56   32   34 ar
    57   35   37 ar
@<TRIPOS>SUBSTRUCTURE
     1 RES1 1

@<TRIPOS>CRYSIN
  17.4658   17.4658   15.8447  90.0000  90.0000  90.0000  82 1

