# MOL2 file generated by ConQuest
# Please check atom types

@<TRIPOS>MOLECULE
YIBNUV
    46    48     1
SMALL
NO_CHARGES
****
Generated from CSD

@<TRIPOS>ATOM
      1 O1         3.2829    3.8799    9.4902 O.3       1 RES1    0.0000
      2 O2         1.6589    2.1904    7.1900 O.3       1 RES1    0.0000
      3 O3         1.1533    4.5854    9.1966 O.2       1 RES1    0.0000
      4 O4         1.4788    2.3399    4.9474 O.2       1 RES1    0.0000
      5 O5         3.5633    5.9912    5.8473 O.3       1 RES1    0.0000
      6 N1         3.3913    5.8884    7.2495 N.2       1 RES1    0.0000
      7 C1         1.7892    2.8071    6.0105 C.2       1 RES1    0.0000
      8 C2         2.2749    4.4044    8.8104 C.2       1 RES1    0.0000
      9 C3         2.9888    3.3917   10.8475 C.3       1 RES1    0.0000
     10 H1         2.3747    4.0331   11.3072 H         1 RES1    0.0000
     11 C4         4.3106    5.1081    3.1705 C.ar      1 RES1    0.0000
     12 H2         5.0823    5.2852    3.6956 H         1 RES1    0.0000
     13 C5         2.3290    2.0270   10.7688 C.3       1 RES1    0.0000
     14 H3         2.8867    1.4176   10.2231 H         1 RES1    0.0000
     15 H4         1.4441    2.1092   10.3328 H         1 RES1    0.0000
     16 C6         4.3201    3.3590   11.5691 C.3       1 RES1    0.0000
     17 H5         4.6783    4.2790   11.6477 H         1 RES1    0.0000
     18 H6         4.9667    2.8194   11.0494 H         1 RES1    0.0000
     19 C7         1.9425    4.6304    3.0166 C.ar      1 RES1    0.0000
     20 H7         1.1051    4.4746    3.4369 H         1 RES1    0.0000
     21 C8         2.4065    4.1348    6.1982 C.2       1 RES1    0.0000
     22 C9         3.0792    4.8805    3.7868 C.ar      1 RES1    0.0000
     23 C10        3.5026    1.3752   12.8932 C.3       1 RES1    0.0000
     24 H8         3.3685    1.0261   13.8100 H         1 RES1    0.0000
     25 H9         4.1026    0.7519   12.4114 H         1 RES1    0.0000
     26 C11        2.7106    4.7908    7.4225 C.2       1 RES1    0.0000
     27 C12        4.1490    2.7535   12.9625 C.3       1 RES1    0.0000
     28 H10        5.0345    2.6791   13.3993 H         1 RES1    0.0000
     29 H11        3.5857    3.3527   13.5138 H         1 RES1    0.0000
     30 C13        2.1586    1.4491   12.1739 C.3       1 RES1    0.0000
     31 H12        1.5373    2.0186   12.6923 H         1 RES1    0.0000
     32 H13        1.7660    0.5428   12.1132 H         1 RES1    0.0000
     33 C14        2.9740    4.9356    5.2492 C.2       1 RES1    0.0000
     34 C15        1.0804    0.8485    7.1653 C.3       1 RES1    0.0000
     35 H14        0.4809    0.7595    6.3822 H         1 RES1    0.0000
     36 H15        0.5419    0.7042    7.9828 H         1 RES1    0.0000
     37 C16        2.1679   -0.1868    7.0883 C.3       1 RES1    0.0000
     38 H16        2.6912   -0.0513    6.2706 H         1 RES1    0.0000
     39 H17        1.7675   -1.0812    7.0748 H         1 RES1    0.0000
     40 H18        2.7547   -0.1032    7.8693 H         1 RES1    0.0000
     41 C17        4.3995    5.0741    1.7877 C.ar      1 RES1    0.0000
     42 H19        5.2370    5.2199    1.3640 H         1 RES1    0.0000
     43 C18        2.0452    4.6120    1.6350 C.ar      1 RES1    0.0000
     44 H20        1.2735    4.4498    1.1052 H         1 RES1    0.0000
     45 C19        3.2716    4.8289    1.0215 C.ar      1 RES1    0.0000
     46 H21        3.3379    4.8094    0.0741 H         1 RES1    0.0000
@<TRIPOS>BOND
     1    1    8 1
     2    2    7 1
     3    3    8 2
     4    4    7 2
     5    5    6 1
     6    6   26 2
     7    7   21 1
     8    8   26 1
     9    9    1 1
    10   10    9 1
    11   11   12 1
    12   13    9 1
    13   14   13 1
    14   15   13 1
    15   16    9 1
    16   17   16 1
    17   18   16 1
    18   19   20 1
    19   21   26 1
    20   22   11 ar
    21   23   24 1
    22   25   23 1
    23   27   16 1
    24   28   27 1
    25   29   27 1
    26   30   13 1
    27   31   30 1
    28   32   30 1
    29   33    5 1
    30   34    2 1
    31   35   34 1
    32   36   34 1
    33   37   34 1
    34   38   37 1
    35   39   37 1
    36   40   37 1
    37   41   11 ar
    38   42   41 1
    39   43   19 ar
    40   44   43 1
    41   45   41 ar
    42   46   45 1
    43   19   22 ar
    44   21   33 2
    45   22   33 1
    46   23   27 1
    47   23   30 1
    48   43   45 ar
@<TRIPOS>SUBSTRUCTURE
     1 RES1 1

@<TRIPOS>CRYSIN
   9.2521    9.8028    9.9294  75.6790  88.5440  79.7570   2 1

