# MOL2 file generated by ConQuest
# Please check atom types

@<TRIPOS>MOLECULE
YICFAS
    31    31     1
SMALL
NO_CHARGES
****
Generated from CSD

@<TRIPOS>ATOM
      1 C1         1.1366    2.6021    5.5034 C.ar      1 RES1    0.0000
      2 C2         1.4652    2.8140    4.1467 C.ar      1 RES1    0.0000
      3 C3         2.6544    2.3465    3.5667 C.ar      1 RES1    0.0000
      4 H1         2.8386    2.5084    2.6490 H         1 RES1    0.0000
      5 C4         3.5588    1.6455    4.3515 C.ar      1 RES1    0.0000
      6 C5         3.2453    1.3968    5.6969 C.ar      1 RES1    0.0000
      7 H2         3.8546    0.9037    6.2344 H         1 RES1    0.0000
      8 C6         2.0707    1.8546    6.2538 C.ar      1 RES1    0.0000
      9 H3         1.8853    1.6628    7.1657 H         1 RES1    0.0000
     10 N1        -0.0359    3.0936    6.0978 N.am      1 RES1    0.0000
     11 H4        -0.6601    3.3768    5.5069 H         1 RES1    0.0000
     12 C7        -0.2572    3.3404    7.4385 C.2       1 RES1    0.0000
     13 O1         0.5550    3.1036    8.3144 O.2       1 RES1    0.0000
     14 C8        -1.6130    3.9320    7.7275 C.3       1 RES1    0.0000
     15 H5        -2.2964    3.2346    7.6490 H         1 RES1    0.0000
     16 H6        -1.8004    4.6478    7.0849 H         1 RES1    0.0000
     17 H7        -1.6233    4.2981    8.6359 H         1 RES1    0.0000
     18 N2         0.5844    3.5659    3.2449 N.pl3     1 RES1    0.0000
     19 O2        -0.5660    3.8503    3.6083 O.2       1 RES1    0.0000
     20 O3         1.0073    3.8983    2.1416 O.2       1 RES1    0.0000
     21 O4         4.7535    1.1468    3.9264 O.3       1 RES1    0.0000
     22 C9         5.1608    1.4096    2.5675 C.3       1 RES1    0.0000
     23 H8         5.0475    2.3694    2.3543 H         1 RES1    0.0000
     24 H9         4.6141    0.8789    1.9350 H         1 RES1    0.0000
     25 C10        6.6210    1.0134    2.4648 C.3       1 RES1    0.0000
     26 H10        6.7228    0.0669    2.7366 H         1 RES1    0.0000
     27 H11        7.1552    1.5686    3.0852 H         1 RES1    0.0000
     28 C11        7.1500    1.1913    1.0473 C.3       1 RES1    0.0000
     29 H12        8.0871    0.9057    1.0104 H         1 RES1    0.0000
     30 H13        7.0862    2.1350    0.7915 H         1 RES1    0.0000
     31 H14        6.6185    0.6477    0.4294 H         1 RES1    0.0000
@<TRIPOS>BOND
     1    1    2 ar
     2    2    3 ar
     3    3    4 1
     4    5    3 ar
     5    6    5 ar
     6    7    6 1
     7    8    1 ar
     8    9    8 1
     9   10    1 1
    10   11   10 1
    11   12   10 1
    12   13   12 2
    13   14   12 1
    14   15   14 1
    15   16   14 1
    16   17   14 1
    17   18    2 1
    18   19   18 2
    19   20   18 2
    20   21    5 1
    21   22   21 1
    22   23   22 1
    23   24   22 1
    24   25   22 1
    25   26   25 1
    26   27   25 1
    27   28   25 1
    28   29   28 1
    29   30   28 1
    30   31   28 1
    31    6    8 ar
@<TRIPOS>SUBSTRUCTURE
     1 RES1 1

@<TRIPOS>CRYSIN
  16.9055    4.0057   18.0989  90.0000 111.4900  90.0000  14 1

