# MOL2 file generated by ConQuest
# Please check atom types

@<TRIPOS>MOLECULE
YICHIC
    34    35     1
SMALL
NO_CHARGES
****
Generated from CSD

@<TRIPOS>ATOM
      1 O1         2.4367    8.9464    1.9641 O.2       1 RES1    0.0000
      2 O2         6.6130    7.5983    3.8466 O.2       1 RES1    0.0000
      3 O3         7.7068    8.8762    5.2115 O.2       1 RES1    0.0000
      4 N1         6.7346    8.6309    4.5080 N.pl3     1 RES1    0.0000
      5 C1        -3.3035   13.3218    0.8958 C.ar      1 RES1    0.0000
      6 H1        -2.6916   13.7051    1.4819 H         1 RES1    0.0000
      7 C2        -4.4830   13.9892    0.5926 C.ar      1 RES1    0.0000
      8 H2        -4.6521   14.8197    0.9745 H         1 RES1    0.0000
      9 C3        -5.4127   13.4306   -0.2737 C.ar      1 RES1    0.0000
     10 H3        -6.2007   13.8831   -0.4704 H         1 RES1    0.0000
     11 C4        -5.1587   12.1913   -0.8437 C.ar      1 RES1    0.0000
     12 H4        -5.7818   11.8063   -1.4175 H         1 RES1    0.0000
     13 C5        -3.9757   11.5280   -0.5593 C.ar      1 RES1    0.0000
     14 H5        -3.8052   10.7063   -0.9600 H         1 RES1    0.0000
     15 C6        -3.0325   12.0724    0.3214 C.ar      1 RES1    0.0000
     16 C7        -1.8047   11.3196    0.5743 C.2       1 RES1    0.0000
     17 H6        -1.6580   10.5758    0.0354 H         1 RES1    0.0000
     18 C8        -0.8628   11.5811    1.4997 C.2       1 RES1    0.0000
     19 H7        -0.9613   12.3197    2.0570 H         1 RES1    0.0000
     20 C9         0.2898   10.7399    1.6400 C.2       1 RES1    0.0000
     21 H8         0.3789   10.0331    1.0422 H         1 RES1    0.0000
     22 C10        1.2546   10.8926    2.5673 C.2       1 RES1    0.0000
     23 H9         1.1970   11.5941    3.1749 H         1 RES1    0.0000
     24 C11        2.3913    9.9736    2.6364 C.2       1 RES1    0.0000
     25 C12        3.5367   10.2955    3.5499 C.ar      1 RES1    0.0000
     26 C13        4.5580    9.3487    3.6493 C.ar      1 RES1    0.0000
     27 H10        4.5005    8.5440    3.1878 H         1 RES1    0.0000
     28 C14        5.6524    9.6225    4.4415 C.ar      1 RES1    0.0000
     29 C15        5.7888   10.8085    5.1490 C.ar      1 RES1    0.0000
     30 H11        6.5361   10.9660    5.6797 H         1 RES1    0.0000
     31 C16        4.7784   11.7513    5.0410 C.ar      1 RES1    0.0000
     32 H12        4.8471   12.5575    5.4993 H         1 RES1    0.0000
     33 C17        3.6592   11.4979    4.2490 C.ar      1 RES1    0.0000
     34 H13        2.9863   12.1368    4.1865 H         1 RES1    0.0000
@<TRIPOS>BOND
     1    1   24 2
     2    2    4 2
     3    3    4 2
     4    4   28 1
     5    5    6 1
     6    7    5 ar
     7    8    7 1
     8    9    7 ar
     9   10    9 1
    10   11    9 ar
    11   12   11 1
    12   13   11 ar
    13   14   13 1
    14   15    5 ar
    15   16   15 1
    16   17   16 1
    17   18   16 2
    18   19   18 1
    19   20   18 1
    20   21   20 1
    21   22   20 2
    22   23   22 1
    23   24   22 1
    24   25   24 1
    25   26   25 ar
    26   27   26 1
    27   28   26 ar
    28   29   28 ar
    29   30   29 1
    30   31   29 ar
    31   32   31 1
    32   33   25 ar
    33   34   33 1
    34   13   15 ar
    35   31   33 ar
@<TRIPOS>SUBSTRUCTURE
     1 RES1 1

@<TRIPOS>CRYSIN
   7.0167   12.1953   16.1081  90.0000  90.0000  90.0000  19 1

