# MOL2 file generated by ConQuest
# Please check atom types

@<TRIPOS>MOLECULE
YICNAA
    31    34     1
SMALL
NO_CHARGES
****
Generated from CSD

@<TRIPOS>ATOM
      1 N1         2.9240    4.4174    5.5334 N.pl3     1 RES1    0.0000
      2 N2         1.9599    4.3930    4.5723 N.2       1 RES1    0.0000
      3 N3         1.7435    5.6204    4.2395 N.2       1 RES1    0.0000
      4 N4         2.5358    6.4701    4.9440 N.2       1 RES1    0.0000
      5 C1         3.2478    5.7047    5.7257 C.2       1 RES1    0.0000
      6 C2         3.3442    3.1896    6.1528 C.ar      1 RES1    0.0000
      7 C3         2.6654    2.7288    7.2583 C.ar      1 RES1    0.0000
      8 H1         1.9199    3.2788    7.6684 H         1 RES1    0.0000
      9 C4         3.0362    1.5157    7.8096 C.ar      1 RES1    0.0000
     10 H2         2.5581    1.1191    8.5493 H         1 RES1    0.0000
     11 C5         4.0715    0.8246    7.2336 C.ar      1 RES1    0.0000
     12 C6         4.7575    1.2825    6.1404 C.ar      1 RES1    0.0000
     13 H3         5.4681    0.7839    5.7786 H         1 RES1    0.0000
     14 C7         4.3745    2.4879    5.5876 C.ar      1 RES1    0.0000
     15 H4         4.7819    2.8160    4.8224 H         1 RES1    0.0000
     16 N5         4.4604   -0.4761    7.8073 N.pl3     1 RES1    0.0000
     17 O1         3.7328   -0.9778    8.6525 O.2       1 RES1    0.0000
     18 O2         5.4913   -0.9856    7.4171 O.2       1 RES1    0.0000
     19 N6         4.1972    6.1736    6.6189 N.pl3     1 RES1    0.0000
     20 N7         5.1791    5.3488    7.1310 N.2       1 RES1    0.0000
     21 N8         5.9415    6.0595    7.8843 N.2       1 RES1    0.0000
     22 C8         5.4888    7.3654    7.8913 C.ar      1 RES1    0.0000
     23 C9         4.3741    7.4683    7.0691 C.ar      1 RES1    0.0000
     24 C10        3.7034    8.6581    6.8534 C.ar      1 RES1    0.0000
     25 H5         2.9433    8.7033    6.2699 H         1 RES1    0.0000
     26 C11        4.2068    9.7475    7.5171 C.ar      1 RES1    0.0000
     27 H6         3.7747   10.5741    7.4219 H         1 RES1    0.0000
     28 C12        5.3244    9.6688    8.3574 C.ar      1 RES1    0.0000
     29 H7         5.6293   10.4058    8.8110 H         1 RES1    0.0000
     30 C13        5.9799    8.4879    8.5721 C.ar      1 RES1    0.0000
     31 H8         6.6911    8.4396    9.1046 H         1 RES1    0.0000
@<TRIPOS>BOND
     1    1    2 1
     2    2    3 2
     3    3    4 1
     4    4    5 2
     5    5    1 1
     6    6    1 1
     7    7    6 ar
     8    8    7 1
     9    9    7 ar
    10   10    9 1
    11   11    9 ar
    12   12   11 ar
    13   13   12 1
    14   14    6 ar
    15   15   14 1
    16   16   11 1
    17   17   16 2
    18   18   16 2
    19   19    5 1
    20   20   19 1
    21   21   20 2
    22   22   21 1
    23   23   19 1
    24   24   23 ar
    25   25   24 1
    26   26   24 ar
    27   27   26 1
    28   28   26 ar
    29   29   28 1
    30   30   22 ar
    31   31   30 1
    32   12   14 ar
    33   22   23 ar
    34   28   30 ar
@<TRIPOS>SUBSTRUCTURE
     1 RES1 1

@<TRIPOS>CRYSIN
   5.0841   14.0240   18.8360  90.0000  92.1400  90.0000  14 1

