# MOL2 file generated by ConQuest
# Please check atom types

@<TRIPOS>MOLECULE
YIDLEC
    21    21     1
SMALL
NO_CHARGES
****
Generated from CSD

@<TRIPOS>ATOM
      1 C1        11.4384    5.2901   -0.9133 C.ar      1 RES1    0.0000
      2 C2        11.1102    4.1273   -1.5618 C.ar      1 RES1    0.0000
      3 C3        10.4134    3.1213   -0.9817 C.ar      1 RES1    0.0000
      4 C4         9.9714    3.2525    0.2990 C.ar      1 RES1    0.0000
      5 C5        10.2498    4.4475    1.0040 C.ar      1 RES1    0.0000
      6 C6        10.9550    5.4440    0.4224 C.ar      1 RES1    0.0000
      7 O1        12.1566    6.2770   -1.4309 O.3       1 RES1    0.0000
      8 N1        11.5613    3.9273   -2.9406 N.pl3     1 RES1    0.0000
      9 O2        12.2579    4.7552   -3.4642 O.2       1 RES1    0.0000
     10 O3        11.1834    2.9682   -3.5237 O.2       1 RES1    0.0000
     11 C7         9.2041    2.1028    0.8478 C.2       1 RES1    0.0000
     12 C8         8.6810    2.0882    1.9545 C.2       1 RES1    0.0000
     13 N2         7.8557    0.8902    2.3724 N.pl3     1 RES1    0.0000
     14 O4         7.8421   -0.1619    1.8087 O.2       1 RES1    0.0000
     15 O5         7.2542    1.1100    3.3824 O.2       1 RES1    0.0000
     16 H1        10.2658    2.2714   -1.6213 H         1 RES1    0.0000
     17 H2        10.0212    4.5940    1.8146 H         1 RES1    0.0000
     18 H3        11.1497    6.2279    0.8478 H         1 RES1    0.0000
     19 H4         9.0559    1.1723    0.4016 H         1 RES1    0.0000
     20 H5         8.7816    2.7843    2.5584 H         1 RES1    0.0000
     21 H6        12.2598    6.0081   -2.4096 H         1 RES1    0.0000
@<TRIPOS>BOND
     1    1    2 ar
     2    2    3 ar
     3    3    4 ar
     4    4    5 ar
     5    5    6 ar
     6    6    1 ar
     7    7    1 1
     8    8    2 1
     9    9    8 2
    10   10    8 2
    11   11    4 1
    12   12   11 2
    13   13   12 1
    14   14   13 2
    15   15   13 2
    16   16    3 1
    17   17    5 1
    18   18    6 1
    19   19   11 1
    20   20   12 1
    21   21    7 1
@<TRIPOS>SUBSTRUCTURE
     1 RES1 1

@<TRIPOS>CRYSIN
   8.2440    7.3270   14.9380  90.0000  95.3000  90.0000  14 1

