# MOL2 file generated by ConQuest
# Please check atom types

@<TRIPOS>MOLECULE
YIDPIM
    29    31     1
SMALL
USER_CHARGES
****
Generated from CSD

@<TRIPOS>ATOM
      1 O1         8.7993   -0.0015    3.5017 O.2       1 RES1    0.0000
      2 C1         9.7729    0.5105    3.9855 C.2       1 RES1    0.0000
      3 H1         9.9258    0.3587    4.8901 H         1 RES1    0.0000
      4 C2        10.7456    1.3578    3.2722 C.ar      1 RES1    0.0000
      5 C3        12.0357    1.4624    3.7876 C.ar      1 RES1    0.0000
      6 H2        12.2220    1.1100    4.6278 H         1 RES1    0.0000
      7 C4        13.0430    2.0795    3.0725 C.ar      1 RES1    0.0000
      8 H3        13.9024    2.1246    3.4252 H         1 RES1    0.0000
      9 C5        12.7787    2.6234    1.8461 C.ar      1 RES1    0.0000
     10 H4        13.4646    3.0176    1.3580 H         1 RES1    0.0000
     11 C6        11.4923    2.5913    1.3247 C.ar      1 RES1    0.0000
     12 H5        11.3069    2.9868    0.5039 H         1 RES1    0.0000
     13 C7        10.4954    1.9654    2.0398 C.ar      1 RES1    0.0000
     14 N1         9.1882    1.9623    1.4825 N.pl3     1 RES1    0.0000
     15 N2         8.1097    2.4546    2.1503 N.pl3     1 RES1    1.0000
     16 O2         8.1666    2.9327    3.3165 O.2       1 RES1   -1.0000
     17 C8         7.0631    2.2829    1.2986 C.2       1 RES1    0.0000
     18 C9         5.7025    2.5528    1.4861 C.2       1 RES1    0.0000
     19 H6         5.3660    2.9344    2.2644 H         1 RES1    0.0000
     20 C10        4.9125    2.2084    0.4304 C.2       1 RES1    0.0000
     21 N3         3.4663    2.4154    0.5871 N.pl3     1 RES1    0.0000
     22 O3         3.0725    3.0990    1.5141 O.2       1 RES1    0.0000
     23 O4         2.7226    1.8803   -0.2289 O.2       1 RES1    0.0000
     24 C11        5.3998    1.6601   -0.7771 C.2       1 RES1    0.0000
     25 H7         4.8052    1.4595   -1.4637 H         1 RES1    0.0000
     26 C12        6.7259    1.4236   -0.9471 C.2       1 RES1    0.0000
     27 H8         7.0536    1.0731   -1.7442 H         1 RES1    0.0000
     28 C13        7.5912    1.7276    0.1251 C.2       1 RES1    0.0000
     29 N4         8.9148    1.5319    0.2453 N.2       1 RES1    0.0000
@<TRIPOS>BOND
     1    1    2 2
     2    2    3 1
     3    4    2 1
     4    5    4 ar
     5    6    5 1
     6    7    5 ar
     7    8    7 1
     8    9    7 ar
     9   10    9 1
    10   11    9 ar
    11   12   11 1
    12   13    4 ar
    13   14   13 1
    14   15   14 1
    15   16   15 1
    16   17   15 2
    17   18   17 1
    18   19   18 1
    19   20   18 2
    20   21   20 1
    21   22   21 2
    22   23   21 2
    23   24   20 1
    24   25   24 1
    25   26   24 2
    26   27   26 1
    27   28   17 1
    28   29   14 1
    29   11   13 ar
    30   26   28 1
    31   28   29 2
@<TRIPOS>SUBSTRUCTURE
     1 RES1 1

@<TRIPOS>CRYSIN
  13.0325   15.3958    6.1563  90.0000  99.5580  90.0000  14 1

