# MOL2 file generated by ConQuest
# Please check atom types

@<TRIPOS>MOLECULE
YIFMIK
    32    32     1
SMALL
NO_CHARGES
****
Generated from CSD

@<TRIPOS>ATOM
      1 C1         6.2246    1.1881    7.4856 C.3       1 RES1    0.0000
      2 H1         5.8797    0.3007    7.6107 H         1 RES1    0.0000
      3 H2         7.1763    1.1819    7.6088 H         1 RES1    0.0000
      4 H3         6.0182    1.4900    6.5979 H         1 RES1    0.0000
      5 C2         6.1226    3.5468    8.3160 C.3       1 RES1    0.0000
      6 H4         5.9076    3.8562    7.4330 H         1 RES1    0.0000
      7 H5         7.0743    3.5468    8.4326 H         1 RES1    0.0000
      8 H6         5.7212    4.1297    8.9649 H         1 RES1    0.0000
      9 O1         2.3933    4.1464    5.1848 O.2       1 RES1    0.0000
     10 O2         0.4471    3.9825    5.9876 O.2       1 RES1    0.0000
     11 C3        -0.5750    1.1967    6.4615 C.3       1 RES1    0.0000
     12 H7        -1.5337    1.2215    6.4672 H         1 RES1    0.0000
     13 H8        -0.2772    0.2846    6.4850 H         1 RES1    0.0000
     14 H9        -0.2478    1.6187    5.6631 H         1 RES1    0.0000
     15 C4         1.2706    1.9506    7.7432 C.ar      1 RES1    0.0000
     16 O3        -0.0746    1.8911    7.6063 O.3       1 RES1    0.0000
     17 C5         4.0721    2.1010    8.2799 C.ar      1 RES1    0.0000
     18 C6         3.2374    1.2904    9.0342 C.ar      1 RES1    0.0000
     19 H10        3.5875    0.7982    9.7417 H         1 RES1    0.0000
     20 C7         1.8934    1.2106    8.7422 C.ar      1 RES1    0.0000
     21 C8         3.4830    2.8387    7.2589 C.ar      1 RES1    0.0000
     22 H11        4.0162    3.3823    6.7258 H         1 RES1    0.0000
     23 N1         1.0887    0.2739    9.5339 N.pl3     1 RES1    0.0000
     24 C9         2.1236    2.7850    7.0173 C.ar      1 RES1    0.0000
     25 O4         1.2265    0.2999   10.7414 O.2       1 RES1    0.0000
     26 N2         1.6113    3.6748    5.9700 N.pl3     1 RES1    0.0000
     27 C10        5.5864    2.1306    8.5039 C.3       1 RES1    0.0000
     28 O5         0.3573   -0.5047    8.9456 O.2       1 RES1    0.0000
     29 C11        5.9561    1.6670    9.9081 C.3       1 RES1    0.0000
     30 H12        5.6460    0.7673   10.0407 H         1 RES1    0.0000
     31 H13        5.5454    2.2449   10.5551 H         1 RES1    0.0000
     32 H14        6.9108    1.6942   10.0134 H         1 RES1    0.0000
@<TRIPOS>BOND
     1    1    2 1
     2    3    1 1
     3    4    1 1
     4    5    6 1
     5    7    5 1
     6    8    5 1
     7    9   26 2
     8   10   26 2
     9   11   12 1
    10   13   11 1
    11   14   11 1
    12   15   16 1
    13   16   11 1
    14   17   18 ar
    15   18   19 1
    16   20   15 ar
    17   21   17 ar
    18   22   21 1
    19   23   20 1
    20   24   15 ar
    21   25   23 2
    22   26   24 1
    23   27    1 1
    24   28   23 2
    25   29   27 1
    26   30   29 1
    27   31   29 1
    28   32   29 1
    29    5   27 1
    30   17   27 1
    31   18   20 ar
    32   21   24 ar
@<TRIPOS>SUBSTRUCTURE
     1 RES1 1

@<TRIPOS>CRYSIN
  21.7800   12.3756   10.0521  90.0000 110.6860  90.0000  15 1

