# MOL2 file generated by ConQuest
# Please check atom types

@<TRIPOS>MOLECULE
YIFYAQ
    59    63     1
SMALL
NO_CHARGES
****
Generated from CSD

@<TRIPOS>ATOM
      1 O1         6.7739    4.9419    8.1917 O.3       1 RES1    0.0000
      2 C1         6.6526    3.6032    7.7268 C.3       1 RES1    0.0000
      3 O2         7.2267    2.8120    8.7486 O.3       1 RES1    0.0000
      4 C2         8.3098    3.5571    9.2892 C.3       1 RES1    0.0000
      5 H1         8.3825    3.4116   10.2658 H         1 RES1    0.0000
      6 H2         9.1635    3.2954    8.8619 H         1 RES1    0.0000
      7 C3         7.9713    5.0216    8.9797 C.3       1 RES1    0.0000
      8 H3         8.7048    5.4257    8.4331 H         1 RES1    0.0000
      9 C4         5.1673    3.2912    7.6301 C.3       1 RES1    0.0000
     10 H4         4.7425    3.4545    8.4983 H         1 RES1    0.0000
     11 H5         4.7548    3.8701    6.9541 H         1 RES1    0.0000
     12 H6         5.0455    2.3533    7.3739 H         1 RES1    0.0000
     13 C5         7.3916    3.4064    6.4232 C.3       1 RES1    0.0000
     14 H7         6.9535    3.9277    5.7187 H         1 RES1    0.0000
     15 H8         8.3180    3.7089    6.5241 H         1 RES1    0.0000
     16 H9         7.3814    2.4569    6.1830 H         1 RES1    0.0000
     17 C6         7.7212    5.8811   10.2101 C.3       1 RES1    0.0000
     18 H10        8.5701    5.9420   10.7351 H         1 RES1    0.0000
     19 C7         7.2452    7.2951    9.8871 C.3       1 RES1    0.0000
     20 H11        7.4428    7.5456    8.9394 H         1 RES1    0.0000
     21 C8         5.7256    7.3116   10.1800 C.3       1 RES1    0.0000
     22 H12        5.1975    7.4949    9.3508 H         1 RES1    0.0000
     23 C9         5.3964    5.9224   10.7575 C.3       1 RES1    0.0000
     24 H13        4.8888    5.3935   10.0775 H         1 RES1    0.0000
     25 N1         6.6905    5.2363   11.0518 N.3       1 RES1    0.0000
     26 O3         7.7929    8.2360   10.8080 O.3       1 RES1    0.0000
     27 C10        6.7541    9.1299   11.2036 C.3       1 RES1    0.0000
     28 O4         5.5545    8.3534   11.1467 O.3       1 RES1    0.0000
     29 C11        6.9801    9.5324   12.6294 C.3       1 RES1    0.0000
     30 H14        7.1040    8.7316   13.1794 H         1 RES1    0.0000
     31 H15        7.7827   10.0925   12.6873 H         1 RES1    0.0000
     32 H16        6.2052   10.0391   12.9534 H         1 RES1    0.0000
     33 C12        6.6628   10.2977   10.2509 C.3       1 RES1    0.0000
     34 H17        7.5093   10.7918   10.2565 H         1 RES1    0.0000
     35 H18        6.4837    9.9679    9.3461 H         1 RES1    0.0000
     36 H19        5.9360   10.8923   10.5310 H         1 RES1    0.0000
     37 C13        4.6430    5.8947   12.0827 C.3       1 RES1    0.0000
     38 H20        4.2455    6.7782   12.2850 H         1 RES1    0.0000
     39 H21        3.9253    5.2132   12.0702 H         1 RES1    0.0000
     40 C14        5.7353    5.5309   13.1064 C.3       1 RES1    0.0000
     41 H22        5.6823    6.1431   13.8952 H         1 RES1    0.0000
     42 O5         6.9812    5.7207   12.4208 O.3       1 RES1    0.0000
     43 C15        5.5649    4.0983   13.5519 C.3       1 RES1    0.0000
     44 H23        4.7071    3.9916   14.0345 H         1 RES1    0.0000
     45 H24        5.5586    3.4964   12.7662 H         1 RES1    0.0000
     46 O6         6.6715    3.7658   14.4249 O.3       1 RES1    0.0000
     47 C16        6.7519    2.4825   14.7739 C.2       1 RES1    0.0000
     48 O7         5.9124    1.6518   14.4857 O.2       1 RES1    0.0000
     49 C17        8.0043    2.1830   15.5261 C.ar      1 RES1    0.0000
     50 C18        8.8493    3.1897   15.9498 C.ar      1 RES1    0.0000
     51 H25        8.6179    4.0983   15.7990 H         1 RES1    0.0000
     52 C19       10.0398    2.8725   16.5979 C.ar      1 RES1    0.0000
     53 H26       10.6150    3.5655   16.8983 H         1 RES1    0.0000
     54 C20       10.3847    1.5566   16.8048 C.ar      1 RES1    0.0000
     55 H27       11.2026    1.3399   17.2368 H         1 RES1    0.0000
     56 C21        9.5300    0.5454   16.3779 C.ar      1 RES1    0.0000
     57 H28        9.7705   -0.3643   16.5121 H         1 RES1    0.0000
     58 C22        8.3344    0.8542   15.7604 C.ar      1 RES1    0.0000
     59 H29        7.7407    0.1623   15.4968 H         1 RES1    0.0000
@<TRIPOS>BOND
     1    1    2 1
     2    2    3 1
     3    3    4 1
     4    4    5 1
     5    6    4 1
     6    7    1 1
     7    8    7 1
     8    9    2 1
     9   10    9 1
    10   11    9 1
    11   12    9 1
    12   13    2 1
    13   14   13 1
    14   15   13 1
    15   16   13 1
    16   17    7 1
    17   18   17 1
    18   19   17 1
    19   20   19 1
    20   21   19 1
    21   22   21 1
    22   23   21 1
    23   24   23 1
    24   25   17 1
    25   26   19 1
    26   27   26 1
    27   28   21 1
    28   29   27 1
    29   30   29 1
    30   31   29 1
    31   32   29 1
    32   33   27 1
    33   34   33 1
    34   35   33 1
    35   36   33 1
    36   37   23 1
    37   38   37 1
    38   39   37 1
    39   40   37 1
    40   41   40 1
    41   42   25 1
    42   43   40 1
    43   44   43 1
    44   45   43 1
    45   46   43 1
    46   47   46 1
    47   48   47 2
    48   49   47 1
    49   50   49 ar
    50   51   50 1
    51   52   50 ar
    52   53   52 1
    53   54   52 ar
    54   55   54 1
    55   56   54 ar
    56   57   56 1
    57   58   49 ar
    58   59   58 1
    59    4    7 1
    60   23   25 1
    61   27   28 1
    62   40   42 1
    63   56   58 ar
@<TRIPOS>SUBSTRUCTURE
     1 RES1 1

@<TRIPOS>CRYSIN
  10.2363   10.4683   20.1860  90.0000  90.0000  90.0000  19 1

