# MOL2 file generated by ConQuest
# Please check atom types

@<TRIPOS>MOLECULE
YIHGOM
    45    48     1
SMALL
NO_CHARGES
****
Generated from CSD

@<TRIPOS>ATOM
      1 C1         5.6903    6.0990   12.1930 C.ar      1 RES1    0.0000
      2 H1         5.1244    5.7995   11.4606 H         1 RES1    0.0000
      3 C2         6.0974    5.1955   13.1538 C.ar      1 RES1    0.0000
      4 H2         5.8380    4.2325   13.0860 H         1 RES1    0.0000
      5 C3         6.8750    5.6429   14.2196 C.ar      1 RES1    0.0000
      6 H3         7.1581    5.0196   14.8931 H         1 RES1    0.0000
      7 C4         7.2402    6.9632   14.3149 C.ar      1 RES1    0.0000
      8 H4         7.7597    7.2532   15.0576 H         1 RES1    0.0000
      9 C5         6.8602    7.8820   13.3413 C.ar      1 RES1    0.0000
     10 C6         6.0813    7.4347   12.2614 C.ar      1 RES1    0.0000
     11 C7         5.4989    8.3719   11.2589 C.2       1 RES1    0.0000
     12 C8         7.9710    9.9083   12.5425 C.3       1 RES1    0.0000
     13 C9         8.5664    8.7012   10.6841 C.2       1 RES1    0.0000
     14 C10        8.4309    7.9141    9.4396 C.ar      1 RES1    0.0000
     15 C11        8.2635    8.5695    8.2005 C.ar      1 RES1    0.0000
     16 C12        8.1285    7.8081    7.0508 C.ar      1 RES1    0.0000
     17 H5         7.9987    8.2723    6.1728 H         1 RES1    0.0000
     18 C13        8.1671    6.4259    7.0797 C.ar      1 RES1    0.0000
     19 C14        8.3854    5.8051    8.2984 C.ar      1 RES1    0.0000
     20 H6         8.4446    4.8269    8.3239 H         1 RES1    0.0000
     21 C15        8.5246    6.5151    9.4896 C.ar      1 RES1    0.0000
     22 C16        5.6025   10.5878   10.2112 C.3       1 RES1    0.0000
     23 H7         5.4227   10.3677    9.2933 H         1 RES1    0.0000
     24 H8         6.1858   11.3500   10.2493 H         1 RES1    0.0000
     25 H9         4.7786   10.7934   10.6578 H         1 RES1    0.0000
     26 C17        8.2985   10.0682    8.0743 C.3       1 RES1    0.0000
     27 H10        8.8330   10.3131    7.3160 H         1 RES1    0.0000
     28 H11        8.6783   10.4472    8.8706 H         1 RES1    0.0000
     29 H12        7.4055   10.4007    7.9571 H         1 RES1    0.0000
     30 C18        7.9917    5.6148    5.8142 C.3       1 RES1    0.0000
     31 H13        7.0613    5.5963    5.5743 H         1 RES1    0.0000
     32 H14        8.3012    4.7184    5.9629 H         1 RES1    0.0000
     33 H15        8.4980    6.0155    5.1034 H         1 RES1    0.0000
     34 C19        8.8021    5.7400   10.7497 C.3       1 RES1    0.0000
     35 H16        8.3415    4.8984   10.7145 H         1 RES1    0.0000
     36 H17        8.4953    6.2420   11.5088 H         1 RES1    0.0000
     37 H18        9.7469    5.5850   10.8280 H         1 RES1    0.0000
     38 N1         7.1478    9.2554   13.4840 N.3       1 RES1    0.0000
     39 N2         6.2425    9.4530   10.8680 N.am      1 RES1    0.0000
     40 N3         7.5918    9.5713   11.1755 N.3       1 RES1    0.0000
     41 N4         9.6188    8.6587   11.4149 N.2       1 RES1    0.0000
     42 O1         9.3556    9.5314   12.5400 O.3       1 RES1    0.0000
     43 O2         4.3797    8.2129   10.8064 O.2       1 RES1    0.0000
     44 H19        7.9584   10.8424   12.7485 H         1 RES1    0.0000
     45 H20        7.2978    9.4851   14.3087 H         1 RES1    0.0000
@<TRIPOS>BOND
     1    1    2 1
     2    3    1 ar
     3    4    3 1
     4    5    3 ar
     5    6    5 1
     6    7    5 ar
     7    8    7 1
     8    9    7 ar
     9   10    1 ar
    10   11   10 1
    11   12   38 1
    12   13   14 1
    13   14   15 ar
    14   15   16 ar
    15   16   17 1
    16   18   16 ar
    17   19   18 ar
    18   20   19 1
    19   21   14 ar
    20   22   23 1
    21   24   22 1
    22   25   22 1
    23   26   15 1
    24   27   26 1
    25   28   26 1
    26   29   26 1
    27   30   18 1
    28   31   30 1
    29   32   30 1
    30   33   30 1
    31   34   21 1
    32   35   34 1
    33   36   34 1
    34   37   34 1
    35   38    9 1
    36   39   11 1
    37   40   12 1
    38   41   13 2
    39   42   12 1
    40   43   11 2
    41   44   12 1
    42   45   38 1
    43    9   10 ar
    44   13   40 1
    45   19   21 ar
    46   22   39 1
    47   39   40 1
    48   41   42 1
@<TRIPOS>SUBSTRUCTURE
     1 RES1 1

@<TRIPOS>CRYSIN
  14.6417    8.0314   28.6593  90.0000  98.1800  90.0000  15 1

