# MOL2 file generated by ConQuest
# Please check atom types

@<TRIPOS>MOLECULE
YIJRAM
    56    53     2
SMALL
NO_CHARGES
****
Generated from CSD

@<TRIPOS>ATOM
      1 N1         8.6800    1.7207    8.1967 N.2       1 RES1    0.0000
      2 O1         8.6204    1.7790    6.7625 O.3       1 RES1    0.0000
      3 O2         9.1273    2.5393   10.6392 O.3       1 RES1    0.0000
      4 H1         8.9659    2.6269    9.8393 H         1 RES1    0.0000
      5 O3         9.6497    1.9492   13.1080 O.3       1 RES1    0.0000
      6 C1         8.9046    3.0889    6.2757 C.3       1 RES1    0.0000
      7 H2         8.9658    3.0747    5.3085 H         1 RES1    0.0000
      8 H3         9.7532    3.3951    6.6301 H         1 RES1    0.0000
      9 C2         8.7240    0.5240    8.6078 C.2       1 RES1    0.0000
     10 H4         8.5493   -0.1694    8.0140 H         1 RES1    0.0000
     11 C3         9.0416    0.2164    9.9924 C.ar      1 RES1    0.0000
     12 C4         9.2158    1.2166   10.9407 C.ar      1 RES1    0.0000
     13 C5         9.5076    0.8849   12.2674 C.ar      1 RES1    0.0000
     14 C6         9.6400   -0.4357   12.6182 C.ar      1 RES1    0.0000
     15 H5         9.8452   -0.6599   13.4978 H         1 RES1    0.0000
     16 C7         9.4717   -1.4402   11.6766 C.ar      1 RES1    0.0000
     17 H6         9.5663   -2.3322   11.9230 H         1 RES1    0.0000
     18 C8         9.1686   -1.1148   10.3898 C.ar      1 RES1    0.0000
     19 H7         9.0452   -1.7926    9.7640 H         1 RES1    0.0000
     20 C9         9.9204    1.6694   14.4805 C.3       1 RES1    0.0000
     21 H8        10.7718    1.2138   14.5662 H         1 RES1    0.0000
     22 H9         9.2287    1.0970   14.8466 H         1 RES1    0.0000
     23 C10        9.9559    2.9736   15.2180 C.3       1 RES1    0.0000
     24 H10       10.6389    3.5346   14.8440 H         1 RES1    0.0000
     25 H11       10.1473    2.8120   16.1449 H         1 RES1    0.0000
     26 H12        9.1035    3.4100   15.1387 H         1 RES1    0.0000
     27 O4         8.0193    1.7919    6.9222 Du        2 SUP2    0.0000
     28 C11        7.7500    3.1452    6.5743 Du        2 SUP2    0.0000
     29 H13        7.1931    3.5389    7.2649 Du        2 SUP2    0.0000
     30 H14        7.2449    3.1587    5.7460 Du        2 SUP2    0.0000
     31 N1D        8.0197    5.3983    4.7857 N.2       1 RES1    0.0000
     32 O1D        8.0794    5.3400    6.2198 O.3       1 RES1    0.0000
     33 O2D        7.5724    4.5797    2.3432 O.3       1 RES1    0.0000
     34 H1D        7.7339    4.4921    3.1430 H         1 RES1    0.0000
     35 O3D        7.0500    5.1698   -0.1257 O.3       1 RES1    0.0000
     36 C1D        7.7951    4.0301    6.7067 C.3       1 RES1    0.0000
     37 H2D        7.7340    4.0443    7.6739 H         1 RES1    0.0000
     38 H3D        6.9466    3.7239    6.3523 H         1 RES1    0.0000
     39 C2D        7.9758    6.5950    4.3745 C.2       1 RES1    0.0000
     40 H4D        8.1505    7.2884    4.9683 H         1 RES1    0.0000
     41 C3D        7.6582    6.9026    2.9900 C.ar      1 RES1    0.0000
     42 C4D        7.4840    5.9024    2.0416 C.ar      1 RES1    0.0000
     43 C5D        7.1922    6.2341    0.7149 C.ar      1 RES1    0.0000
     44 C6D        7.0598    7.5547    0.3642 C.ar      1 RES1    0.0000
     45 H5D        6.8546    7.7789   -0.5154 H         1 RES1    0.0000
     46 C7D        7.2280    8.5592    1.3058 C.ar      1 RES1    0.0000
     47 H6D        7.1335    9.4512    1.0594 H         1 RES1    0.0000
     48 C8D        7.5311    8.2338    2.5926 C.ar      1 RES1    0.0000
     49 H7D        7.6546    8.9116    3.2183 H         1 RES1    0.0000
     50 C9D        6.7794    5.4496   -1.4982 C.3       1 RES1    0.0000
     51 H8D        5.9280    5.9052   -1.5838 H         1 RES1    0.0000
     52 H9D        7.4711    6.0220   -1.8643 H         1 RES1    0.0000
     53 C10D       6.7439    4.1454   -2.2357 C.3       1 RES1    0.0000
     54 H10D       6.0609    3.5844   -1.8617 H         1 RES1    0.0000
     55 H11D       6.5524    4.3070   -3.1625 H         1 RES1    0.0000
     56 H12D       7.5962    3.7090   -2.1564 H         1 RES1    0.0000
@<TRIPOS>BOND
     1    1    2 1
     2    2    6 1
     3    3    4 1
     4    5   13 1
     5    6    7 1
     6    8    6 1
     7    9    1 2
     8   10    9 1
     9   11    9 1
    10   12    3 1
    11   13   12 ar
    12   14   13 ar
    13   15   14 1
    14   16   14 ar
    15   17   16 1
    16   18   11 ar
    17   19   18 1
    18   20    5 1
    19   21   20 1
    20   22   20 1
    21   23   20 1
    22   24   23 1
    23   25   23 1
    24   26   23 1
    25   31   32 1
    26   32   36 1
    27   33   34 1
    28   35   43 1
    29   36    6 1
    30   37   36 1
    31   38   36 1
    32   39   31 2
    33   40   39 1
    34   41   39 1
    35   42   33 1
    36   43   42 ar
    37   44   43 ar
    38   45   44 1
    39   46   44 ar
    40   47   46 1
    41   48   41 ar
    42   49   48 1
    43   50   35 1
    44   51   50 1
    45   52   50 1
    46   53   50 1
    47   54   53 1
    48   55   53 1
    49   56   53 1
    50   11   12 ar
    51   16   18 ar
    52   41   42 ar
    53   46   48 ar
@<TRIPOS>SUBSTRUCTURE
     1 RES1 1
     2 SUP2 27

@<TRIPOS>CRYSIN
  21.2240    7.1190   13.7481  90.0000 109.2130  90.0000  15 1

