# MOL2 file generated by ConQuest
# Please check atom types

@<TRIPOS>MOLECULE
YIJSAL
    29    28     2
SMALL
NO_CHARGES
****
Generated from CSD

@<TRIPOS>ATOM
      1 O1         3.1581    1.0998    1.0671 O.2       1 RES1    0.0000
      2 O2         6.1246    1.1031   -6.0906 O.2       1 RES1    0.0000
      3 O3         5.9517    0.0593   -5.8501 Du        2 SUP2    0.0000
      4 O4         4.2698    0.9256   -4.9804 O.2       1 RES1    0.0000
      5 N1         5.4744    1.5772   -0.2395 N.3       1 RES1    0.0000
      6 N2         5.4824    1.0171   -5.0361 N.pl3     1 RES1    0.0000
      7 C1         2.7960    2.1220    3.1897 C.3       1 RES1    0.0000
      8 C2         3.6160    1.8314    1.9619 C.2       1 RES1    0.0000
      9 C3         4.8896    2.4528    1.8758 C.2       1 RES1    0.0000
     10 C4         5.7569    2.3433    0.8381 C.2       1 RES1    0.0000
     11 C5         7.0382    3.1386    0.8507 C.3       1 RES1    0.0000
     12 C6         6.2226    1.3885   -1.4158 C.ar      1 RES1    0.0000
     13 C7         5.5398    1.3176   -2.6110 C.ar      1 RES1    0.0000
     14 C8         6.2369    1.1058   -3.7726 C.ar      1 RES1    0.0000
     15 C9         7.6149    0.9727   -3.8062 C.ar      1 RES1    0.0000
     16 C10        8.2731    1.0118   -2.6194 C.ar      1 RES1    0.0000
     17 C11        7.6066    1.1985   -1.4242 C.ar      1 RES1    0.0000
     18 H1         4.7339    1.1437   -0.1470 H         1 RES1    0.0000
     19 H2         5.1214    2.9873    2.5942 H         1 RES1    0.0000
     20 H3         2.7967    3.0698    3.3399 H         1 RES1    0.0000
     21 H4         3.2503    1.9049    3.9070 H         1 RES1    0.0000
     22 H5         2.0114    1.7254    3.1298 H         1 RES1    0.0000
     23 H6         6.8543    3.8858    1.4074 H         1 RES1    0.0000
     24 H7         7.8118    2.4279    1.0398 H         1 RES1    0.0000
     25 H8         7.1379    3.5986    0.0210 H         1 RES1    0.0000
     26 H9         4.6494    1.3808   -2.5837 H         1 RES1    0.0000
     27 H10        8.0546    0.7281   -4.6002 H         1 RES1    0.0000
     28 H11        9.1786    0.8742   -2.5312 H         1 RES1    0.0000
     29 H12        8.0884    1.2552   -0.6512 H         1 RES1    0.0000
@<TRIPOS>BOND
     1    1    8 2
     2    2    6 2
     3    4    6 2
     4    5   10 1
     5    6   14 1
     6    7    8 1
     7    8    9 1
     8    9   10 2
     9   10   11 1
    10   11   23 1
    11   12    5 1
    12   13   12 ar
    13   14   13 ar
    14   15   14 ar
    15   16   15 ar
    16   17   12 ar
    17   18    5 1
    18   19    9 1
    19   20    7 1
    20   21    7 1
    21   22    7 1
    22   24   11 1
    23   25   11 1
    24   26   13 1
    25   27   15 1
    26   28   16 1
    27   29   17 1
    28   16   17 ar
@<TRIPOS>SUBSTRUCTURE
     1 RES1 1
     2 SUP2 3

@<TRIPOS>CRYSIN
   7.0640    8.0000   10.8700  75.0700  84.8500  68.1300   2 1

