# MOL2 file generated by ConQuest
# Please check atom types

@<TRIPOS>MOLECULE
YIKBUP
    19    19     1
SMALL
NO_CHARGES
****
Generated from CSD

@<TRIPOS>ATOM
      1 C1         2.3722    6.2964    1.7190 C.3       1 RES1    0.0000
      2 C2         3.2528    5.8935    0.5368 C.3       1 RES1    0.0000
      3 C3         4.1625    7.1038    0.3788 C.3       1 RES1    0.0000
      4 C4         2.3881    7.8216    1.7167 C.3       1 RES1    0.0000
      5 N1         0.9758    5.7322    1.6607 N.pl3     1 RES1    0.0000
      6 N2         2.9787    5.7113    2.9940 N.pl3     1 RES1    0.0000
      7 O1         0.7891    4.7968    0.8927 O.2       1 RES1    0.0000
      8 O2         0.1384    6.2306    2.3588 O.2       1 RES1    0.0000
      9 O3         2.4271    4.7604    3.5022 O.2       1 RES1    0.0000
     10 O4         4.0230    6.1990    3.3442 O.2       1 RES1    0.0000
     11 O5         3.9872    4.7209    0.7313 O.3       1 RES1    0.0000
     12 O6         3.2823    8.2035    0.6901 O.3       1 RES1    0.0000
     13 O7         4.6122    7.2556   -0.9030 O.3       1 RES1    0.0000
     14 H1         4.6103    4.6516    1.2864 H         1 RES1    0.0000
     15 H2         2.6356    5.9109   -0.3090 H         1 RES1    0.0000
     16 H3         5.0089    7.1182    1.1102 H         1 RES1    0.0000
     17 H4         5.5667    7.2341   -0.9076 H         1 RES1    0.0000
     18 H5         1.4270    8.1360    1.4386 H         1 RES1    0.0000
     19 H6         2.7492    8.0786    2.5671 H         1 RES1    0.0000
@<TRIPOS>BOND
     1    1    2 1
     2    2    3 1
     3    3   12 1
     4    4    1 1
     5    5    1 1
     6    6    1 1
     7    7    5 2
     8    8    5 2
     9    9    6 2
    10   10    6 2
    11   11    2 1
    12   12    4 1
    13   13    3 1
    14   14   11 1
    15   15    2 1
    16   16    3 1
    17   17   13 1
    18   18    4 1
    19   19    4 1
@<TRIPOS>SUBSTRUCTURE
     1 RES1 1

