# MOL2 file generated by ConQuest
# Please check atom types

@<TRIPOS>MOLECULE
YILFII
    41    43     1
SMALL
NO_CHARGES
****
Generated from CSD

@<TRIPOS>ATOM
      1 O1         0.4334   -5.6241   10.2413 O.2       1 RES1    0.0000
      2 O2        -0.7967   -4.7857   11.8201 O.2       1 RES1    0.0000
      3 O3        -0.4709    0.0737   12.5109 O.2       1 RES1    0.0000
      4 O4         1.5890    0.5436   13.0215 O.2       1 RES1    0.0000
      5 O5         1.2034    1.5785   10.4131 O.2       1 RES1    0.0000
      6 O6         2.3040    3.0865   11.5421 O.2       1 RES1    0.0000
      7 O7         6.9737    3.2606   10.1570 O.2       1 RES1    0.0000
      8 O8         7.8426    1.5657    9.1090 O.2       1 RES1    0.0000
      9 N1         4.4226   -5.5408    9.0163 N.1       1 RES1    0.0000
     10 N2         6.6555   -3.1890    9.9077 N.3       1 RES1    0.0000
     11 N3         0.1391   -4.7366   11.0231 N.pl3     1 RES1    0.0000
     12 N4         0.7328   -0.1068   12.4166 N.pl3     1 RES1    0.0000
     13 N5         2.2228    2.0249   10.9338 N.pl3     1 RES1    0.0000
     14 N6         6.9371    2.1018    9.7290 N.pl3     1 RES1    0.0000
     15 C1         2.2138   -3.5757   10.4890 C.ar      1 RES1    0.0000
     16 C2         0.9445   -3.4966   11.0096 C.ar      1 RES1    0.0000
     17 C3         0.4279   -2.3560   11.5994 C.ar      1 RES1    0.0000
     18 C4         1.2101   -1.2250   11.5859 C.ar      1 RES1    0.0000
     19 C5         3.4685    1.2474   10.7653 C.ar      1 RES1    0.0000
     20 C6         4.5928    1.9865   10.4654 C.ar      1 RES1    0.0000
     21 C7         5.7239    1.3115   10.0425 C.ar      1 RES1    0.0000
     22 C8         5.7796   -0.0534    9.8891 C.ar      1 RES1    0.0000
     23 C9         4.4094   -2.2278   10.1284 C.2       1 RES1    0.0000
     24 C10        3.0049   -2.4233   10.4940 C.ar      1 RES1    0.0000
     25 C11        2.4808   -1.1919   10.9776 C.ar      1 RES1    0.0000
     26 C12        3.4850   -0.1602   10.7451 C.ar      1 RES1    0.0000
     27 C13        4.6656   -0.8042   10.2750 C.ar      1 RES1    0.0000
     28 C14        5.3189   -3.2264    9.8049 C.2       1 RES1    0.0000
     29 C15        4.8055   -4.5102    9.3364 C.1       1 RES1    0.0000
     30 C16        7.4991   -4.2250    9.2758 C.3       1 RES1    0.0000
     31 C17        7.3518   -2.4308   10.9372 C.3       1 RES1    0.0000
     32 H1         2.5235   -4.4301   10.1992 H         1 RES1    0.0000
     33 H2        -0.3996   -2.3742   12.0324 H         1 RES1    0.0000
     34 H3         4.5809    2.9156   10.4805 H         1 RES1    0.0000
     35 H4         6.5136   -0.4336    9.4864 H         1 RES1    0.0000
     36 H5         7.0287   -4.4909    8.3760 H         1 RES1    0.0000
     37 H6         7.5956   -4.9940    9.8723 H         1 RES1    0.0000
     38 H7         8.3705   -3.7679    9.0786 H         1 RES1    0.0000
     39 H8         7.8939   -3.0769   11.4983 H         1 RES1    0.0000
     40 H9         7.9339   -1.7675   10.5176 H         1 RES1    0.0000
     41 H10        6.6829   -1.9662   11.5505 H         1 RES1    0.0000
@<TRIPOS>BOND
     1    1   11 2
     2    2   11 2
     3    3   12 2
     4    4   12 2
     5    5   13 2
     6    6   13 2
     7    7   14 2
     8    8   14 2
     9    9   29 3
    10   10   28 1
    11   11   16 1
    12   12   18 1
    13   13   19 1
    14   14   21 1
    15   15   16 ar
    16   16   17 ar
    17   17   18 ar
    18   18   25 ar
    19   19   20 ar
    20   20   21 ar
    21   21   22 ar
    22   22   27 ar
    23   23   24 1
    24   24   15 ar
    25   25   24 ar
    26   26   19 ar
    27   27   23 1
    28   28   23 2
    29   29   28 1
    30   30   10 1
    31   31   10 1
    32   32   15 1
    33   33   17 1
    34   34   20 1
    35   35   22 1
    36   36   30 1
    37   37   30 1
    38   38   30 1
    39   39   31 1
    40   40   31 1
    41   41   31 1
    42   25   26 1
    43   26   27 ar
@<TRIPOS>SUBSTRUCTURE
     1 RES1 1

@<TRIPOS>CRYSIN
  19.3130   10.6800   17.0360  90.0000  98.4800  90.0000  15 1

