# MOL2 file generated by ConQuest
# Please check atom types

@<TRIPOS>MOLECULE
YILLEM
    23    24     1
SMALL
NO_CHARGES
****
Generated from CSD

@<TRIPOS>ATOM
      1 C1         2.5162    7.6760    8.3405 C.ar      1 RES1    0.0000
      2 C2         3.5034    8.6178    8.0381 C.ar      1 RES1    0.0000
      3 H1         4.0953    8.9002    8.6973 H         1 RES1    0.0000
      4 C3         3.5961    9.1246    6.7638 C.ar      1 RES1    0.0000
      5 H2         4.2586    9.7475    6.5677 H         1 RES1    0.0000
      6 C4         2.7173    8.7261    5.7638 C.ar      1 RES1    0.0000
      7 H3         2.7941    9.0839    4.9082 H         1 RES1    0.0000
      8 C5         1.7347    7.8025    6.0369 C.ar      1 RES1    0.0000
      9 H4         1.1477    7.5322    5.3683 H         1 RES1    0.0000
     10 C6         1.6247    7.2723    7.3269 C.ar      1 RES1    0.0000
     11 C7         0.5982    6.2864    7.6435 C.2       1 RES1    0.0000
     12 C8         1.5102    6.3158    9.8774 C.2       1 RES1    0.0000
     13 C9         1.4026    5.7163   11.2305 C.2       1 RES1    0.0000
     14 N1         2.4581    7.1502    9.6317 N.2       1 RES1    0.0000
     15 N2         0.5672    5.9095    8.9615 N.am      1 RES1    0.0000
     16 H5        -0.0271    5.3542    9.1795 H         1 RES1    0.0000
     17 N3         2.4052    6.0022   12.0938 N.3       1 RES1    0.0000
     18 H6         2.3916    5.7094   12.8420 H         1 RES1    0.0000
     19 H7         3.1009    6.4458   11.7672 H         1 RES1    0.0000
     20 N4         0.3807    4.9799   11.4799 N.2       1 RES1    0.0000
     21 O1        -0.1897    5.8185    6.8232 O.2       1 RES1    0.0000
     22 O2         0.4741    4.5190   12.8071 O.3       1 RES1    0.0000
     23 H8        -0.2006    3.9593   12.9224 H         1 RES1    0.0000
@<TRIPOS>BOND
     1    1    2 ar
     2    2    3 1
     3    4    2 ar
     4    5    4 1
     5    6    4 ar
     6    7    6 1
     7    8    6 ar
     8    9    8 1
     9   10    1 ar
    10   11   10 1
    11   12   13 1
    12   13   17 1
    13   14    1 1
    14   15   11 1
    15   16   15 1
    16   17   18 1
    17   19   17 1
    18   20   13 2
    19   21   11 2
    20   22   20 1
    21   23   22 1
    22    8   10 ar
    23   12   14 2
    24   12   15 1
@<TRIPOS>SUBSTRUCTURE
     1 RES1 1

@<TRIPOS>CRYSIN
   5.1502    8.6637   20.1630  90.0000  94.8510  90.0000  14 1

