# MOL2 file generated by ConQuest
# Please check atom types

@<TRIPOS>MOLECULE
YILPOY
    37    38     1
SMALL
NO_CHARGES
****
Generated from CSD

@<TRIPOS>ATOM
      1 O1         3.5552    3.6219    1.9379 O.2       1 RES1    0.0000
      2 O2         3.6140    3.1484   -0.1621 O.2       1 RES1    0.0000
      3 O3         7.9699    0.8930    0.3763 O.2       1 RES1    0.0000
      4 O4         7.8783   -1.0366    1.3657 O.2       1 RES1    0.0000
      5 O5         8.2061   -0.4408    4.5699 O.2       1 RES1    0.0000
      6 O6         9.8630   -1.0037    3.2876 O.2       1 RES1    0.0000
      7 O7        10.3640    1.6513    1.3120 O.2       1 RES1    0.0000
      8 O8        10.4449    1.8043    3.4713 O.2       1 RES1    0.0000
      9 N1         4.0817    3.1256    0.9581 N.pl3     1 RES1    0.0000
     10 N2         8.1305    0.1409    1.3208 N.pl3     1 RES1    0.0000
     11 N3         8.9007   -0.3203    3.5909 N.pl3     1 RES1    0.0000
     12 N4         9.9255    1.4801    2.4210 N.pl3     1 RES1    0.0000
     13 C1         5.4211    2.4156    1.1411 C.3       1 RES1    0.0000
     14 C2         5.2339    1.3146    2.1457 C.2       1 RES1    0.0000
     15 C3         6.1681    1.0617    3.0509 C.2       1 RES1    0.0000
     16 C4         7.4832    1.7780    3.1255 C.3       1 RES1    0.0000
     17 C5         7.4801    3.1126    2.4065 C.ar      1 RES1    0.0000
     18 C6         8.4566    4.0554    2.6962 C.ar      1 RES1    0.0000
     19 C7         8.4813    5.2962    2.0759 C.ar      1 RES1    0.0000
     20 C8         7.4570    5.5979    1.1852 C.ar      1 RES1    0.0000
     21 C9         6.4695    4.6863    0.9068 C.ar      1 RES1    0.0000
     22 C10        6.4697    3.4315    1.4981 C.ar      1 RES1    0.0000
     23 C11        3.9898    0.4892    2.0358 C.3       1 RES1    0.0000
     24 C12        9.5906    6.2684    2.3479 C.3       1 RES1    0.0000
     25 C13        8.5775    0.8104    2.6111 C.3       1 RES1    0.0000
     26 H1         5.6669    2.0177    0.3033 H         1 RES1    0.0000
     27 H2         5.9939    0.3741    3.6976 H         1 RES1    0.0000
     28 H3         7.6646    1.9508    4.0523 H         1 RES1    0.0000
     29 H4         9.1347    3.8393    3.3413 H         1 RES1    0.0000
     30 H5         7.4373    6.4578    0.7575 H         1 RES1    0.0000
     31 H6         5.7687    4.9203    0.2929 H         1 RES1    0.0000
     32 H7         3.9848   -0.1740    2.7307 H         1 RES1    0.0000
     33 H8         3.9608    0.0550    1.1804 H         1 RES1    0.0000
     34 H9         3.2229    1.0583    2.1321 H         1 RES1    0.0000
     35 H10        9.4454    7.0681    1.8368 H         1 RES1    0.0000
     36 H11       10.4309    5.8766    2.0976 H         1 RES1    0.0000
     37 H12        9.6042    6.4856    3.2836 H         1 RES1    0.0000
@<TRIPOS>BOND
     1    1    9 2
     2    2    9 2
     3    3   10 2
     4    4   10 2
     5    5   11 2
     6    6   11 2
     7    7   12 2
     8    8   12 2
     9    9   13 1
    10   10   25 1
    11   11   25 1
    12   12   25 1
    13   13   14 1
    14   14   15 2
    15   15   16 1
    16   16   17 1
    17   17   18 ar
    18   18   19 ar
    19   19   20 ar
    20   20   21 ar
    21   21   22 ar
    22   22   13 1
    23   23   14 1
    24   24   19 1
    25   25   16 1
    26   26   13 1
    27   27   15 1
    28   28   16 1
    29   29   18 1
    30   30   20 1
    31   31   21 1
    32   32   23 1
    33   33   23 1
    34   34   23 1
    35   35   24 1
    36   36   24 1
    37   37   24 1
    38   17   22 ar
@<TRIPOS>SUBSTRUCTURE
     1 RES1 1

@<TRIPOS>CRYSIN
   9.6210    9.7080    9.7200 101.0300 117.6000 105.0000   2 1

