# MOL2 file generated by ConQuest
# Please check atom types

@<TRIPOS>MOLECULE
YILRAM
    40    40     2
SMALL
NO_CHARGES
****
Generated from CSD

@<TRIPOS>ATOM
      1 O1         9.8478    2.1145    6.5390 O.3       1 RES1    0.0000
      2 O2         7.8398    1.7063    5.7060 O.3       1 RES1    0.0000
      3 O3        11.6616    1.2619    4.5997 O.2       1 RES1    0.0000
      4 O4        11.3218   -0.8316    4.1577 O.2       1 RES1    0.0000
      5 O5         9.1244    0.9260    2.7559 O.2       1 RES1    0.0000
      6 O6         7.8235   -0.5668    3.6226 O.2       1 RES1    0.0000
      7 O7         7.5597   -1.0637    8.8273 O.2       1 RES1    0.0000
      8 O8         7.4551   -2.5962    7.3259 O.2       1 RES1    0.0000
      9 N1         9.2059    1.7553    5.3438 N.3       1 RES1    0.0000
     10 N2        10.9748    0.2694    4.5371 N.pl3     1 RES1    0.0000
     11 N3         8.7545    0.2029    3.6556 N.pl3     1 RES1    0.0000
     12 N4         7.5834   -1.4427    7.6716 N.pl3     1 RES1    0.0000
     13 C1         9.1576    1.4217    7.6363 C.3       1 RES1    0.0000
     14 C2         7.8020    1.0147    6.9975 C.3       1 RES1    0.0000
     15 C3         7.8113   -0.4479    6.5662 C.3       1 RES1    0.0000
     16 C4         9.2020   -0.7534    5.9735 C.3       1 RES1    0.0000
     17 C5        10.1698   -0.7616    7.1358 C.ar      1 RES1    0.0000
     18 C6        11.0415   -1.7961    7.4033 C.ar      1 RES1    0.0000
     19 C7        11.8148   -1.7879    8.5582 C.ar      1 RES1    0.0000
     20 C8        11.6680   -0.7383    9.4496 C.ar      1 RES1    0.0000
     21 C9        10.7838    0.2962    9.2002 C.ar      1 RES1    0.0000
     22 C10       10.0475    0.2916    8.0437 C.ar      1 RES1    0.0000
     23 C11        6.5572    1.5092    7.6807 C.3       1 RES1    0.0000
     24 C12       12.7794   -2.9018    8.8479 C.3       1 RES1    0.0000
     25 C13        9.5211    0.3522    4.9750 C.3       1 RES1    0.0000
     26 H1         9.0079    2.0445    8.4042 H         1 RES1    0.0000
     27 H2         7.1174   -0.5831    5.8583 H         1 RES1    0.0000
     28 H3         9.1982   -1.6445    5.5175 H         1 RES1    0.0000
     29 H4        11.1133   -2.5204    6.7925 H         1 RES1    0.0000
     30 H5        12.1834   -0.7289   10.2481 H         1 RES1    0.0000
     31 H6        10.6866    1.0042    9.8258 H         1 RES1    0.0000
     32 H7         5.7699    1.2165    7.1761 H         1 RES1    0.0000
     33 H8         6.5732    2.4877    7.7227 H         1 RES1    0.0000
     34 H9         6.5170    1.1441    8.5894 H         1 RES1    0.0000
     35 H10       13.5419   -2.5519    9.3541 H         1 RES1    0.0000
     36 H11       13.0959   -3.2866    8.0042 H         1 RES1    0.0000
     37 H12       12.3285   -3.5957    9.3739 H         1 RES1    0.0000
     38 H13       12.4351   -3.7380    8.4676 Du        2 SUP2    0.0000
     39 H14       12.8810   -3.0021    9.8176 Du        2 SUP2    0.0000
     40 H15       13.6487   -2.6942    8.4470 Du        2 SUP2    0.0000
@<TRIPOS>BOND
     1    1    9 1
     2    2    9 1
     3    3   10 2
     4    4   10 2
     5    5   11 2
     6    6   11 2
     7    7   12 2
     8    8   12 2
     9    9   25 1
    10   10   25 1
    11   11   25 1
    12   12   15 1
    13   13    1 1
    14   14    2 1
    15   15   14 1
    16   16   15 1
    17   17   16 1
    18   18   17 ar
    19   19   18 ar
    20   20   19 ar
    21   21   20 ar
    22   22   13 1
    23   23   14 1
    24   24   19 1
    25   25   16 1
    26   26   13 1
    27   27   15 1
    28   28   16 1
    29   29   18 1
    30   30   20 1
    31   31   21 1
    32   32   23 1
    33   33   23 1
    34   34   23 1
    35   35   24 1
    36   36   24 1
    37   37   24 1
    38   13   14 1
    39   17   22 ar
    40   21   22 ar
@<TRIPOS>SUBSTRUCTURE
     1 RES1 1
     2 SUP2 38

@<TRIPOS>CRYSIN
  15.2340   11.6630    8.5310  90.0000 105.2300  90.0000  14 1

