# MOL2 file generated by ConQuest
# Please check atom types

@<TRIPOS>MOLECULE
YILRIU
    36    39     1
SMALL
NO_CHARGES
****
Generated from CSD

@<TRIPOS>ATOM
      1 O1         1.3195    4.2776    2.9095 O.3       1 RES1    0.0000
      2 O2         0.0706    3.5750    4.5974 O.3       1 RES1    0.0000
      3 O3        -0.0541    3.7506    0.5906 O.2       1 RES1    0.0000
      4 O4        -0.5230    1.6322    0.4648 O.2       1 RES1    0.0000
      5 O5        -1.9010    1.0656    3.3692 O.2       1 RES1    0.0000
      6 O6         2.0423    0.5698    4.8709 O.3       1 RES1    0.0000
      7 N1         0.0195    3.8213    3.1947 N.3       1 RES1    0.0000
      8 N2        -0.2585    2.6636    1.0722 N.pl3     1 RES1    0.0000
      9 N3        -1.6546    2.1570    2.9179 N.pl3     1 RES1    0.0000
     10 C1         2.2587    3.4979    3.7451 C.3       1 RES1    0.0000
     11 C2         1.3375    2.8692    4.8139 C.3       1 RES1    0.0000
     12 C3         0.9934    1.4276    4.4968 C.3       1 RES1    0.0000
     13 C4         0.7514    1.3655    2.9783 C.3       1 RES1    0.0000
     14 C5         2.1205    1.5058    2.3289 C.ar      1 RES1    0.0000
     15 C6         2.5983    0.6362    1.3809 C.ar      1 RES1    0.0000
     16 C7         3.9088    0.7347    0.9296 C.ar      1 RES1    0.0000
     17 C8         4.7173    1.7147    1.4849 C.ar      1 RES1    0.0000
     18 C9         4.2334    2.6229    2.4145 C.ar      1 RES1    0.0000
     19 C10        2.9229    2.5179    2.8306 C.ar      1 RES1    0.0000
     20 C11        1.7523    3.1145    6.2435 C.3       1 RES1    0.0000
     21 C12        4.4348   -0.2367   -0.0990 C.3       1 RES1    0.0000
     22 C13       -0.1848    2.4901    2.5873 C.3       1 RES1    0.0000
     23 O7        -2.4541    3.0481    2.7048 O.2       1 RES1    0.0000
     24 H1         1.7267   -0.1532    5.1595 H         1 RES1    0.0000
     25 H2         2.9350    4.0998    4.1696 H         1 RES1    0.0000
     26 H3         0.1548    1.1727    4.9767 H         1 RES1    0.0000
     27 H4         0.3471    0.4841    2.7333 H         1 RES1    0.0000
     28 H5         2.0303   -0.0418    1.0336 H         1 RES1    0.0000
     29 H6         5.6280    1.7661    1.2198 H         1 RES1    0.0000
     30 H7         4.7984    3.3030    2.7618 H         1 RES1    0.0000
     31 H8         2.6134    2.6775    6.4146 H         1 RES1    0.0000
     32 H9         1.0745    2.7471    6.8492 H         1 RES1    0.0000
     33 H10        1.8394    4.0784    6.3962 H         1 RES1    0.0000
     34 H11        5.4131   -0.1821   -0.1275 H         1 RES1    0.0000
     35 H12        4.0696   -0.0118   -0.9799 H         1 RES1    0.0000
     36 H13        4.1658   -1.1481    0.1426 H         1 RES1    0.0000
@<TRIPOS>BOND
     1    1    7 1
     2    2    7 1
     3    3    8 2
     4    4    8 2
     5    5    9 2
     6    6   12 1
     7    7   22 1
     8    8   22 1
     9    9   22 1
    10   10    1 1
    11   11    2 1
    12   12   11 1
    13   13   12 1
    14   14   13 1
    15   15   14 ar
    16   16   15 ar
    17   17   16 ar
    18   18   17 ar
    19   19   10 1
    20   20   11 1
    21   21   16 1
    22   22   13 1
    23   23    9 2
    24   24    6 1
    25   25   10 1
    26   26   12 1
    27   27   13 1
    28   28   15 1
    29   29   17 1
    30   30   18 1
    31   31   20 1
    32   32   20 1
    33   33   20 1
    34   34   21 1
    35   35   21 1
    36   36   21 1
    37   10   11 1
    38   14   19 ar
    39   18   19 ar
@<TRIPOS>SUBSTRUCTURE
     1 RES1 1

@<TRIPOS>CRYSIN
  15.0280   10.7100   16.7790  90.0000  90.0000  90.0000  61 1

