# MOL2 file generated by ConQuest
# Please check atom types

@<TRIPOS>MOLECULE
YILSUJ
    28    28     1
SMALL
NO_CHARGES
****
Generated from CSD

@<TRIPOS>ATOM
      1 O1         4.3804    4.3846    6.6178 O.3       1 RES1    0.0000
      2 C1         3.6463    3.5041    8.5267 C.2       1 RES1    0.0000
      3 C2         2.5675    3.2517    9.5202 C.ar      1 RES1    0.0000
      4 C3         2.6854    2.2409   10.4623 C.ar      1 RES1    0.0000
      5 H1         3.4571    1.7233   10.4850 H         1 RES1    0.0000
      6 C4         1.4033    4.0132    9.5228 C.ar      1 RES1    0.0000
      7 H2         1.3025    4.6970    8.9009 H         1 RES1    0.0000
      8 C5         0.3920    3.7668   10.4379 C.ar      1 RES1    0.0000
      9 H3        -0.3766    4.2902   10.4318 H         1 RES1    0.0000
     10 C6         0.5232    2.7569   11.3512 C.ar      1 RES1    0.0000
     11 H4        -0.1602    2.5850   11.9583 H         1 RES1    0.0000
     12 N1         3.2774    4.2073    7.5268 N.2       1 RES1    0.0000
     13 C7         1.6746    1.9945   11.3669 C.ar      1 RES1    0.0000
     14 H5         1.7687    1.3109   11.9906 H         1 RES1    0.0000
     15 C8         4.0733    5.2442    5.6176 C.2       1 RES1    0.0000
     16 O2         3.0603    5.8612    5.4925 O.2       1 RES1    0.0000
     17 O3         5.1186    5.2670    4.8311 O.3       1 RES1    0.0000
     18 C9         5.0142    6.1352    3.6741 C.3       1 RES1    0.0000
     19 H6         4.8368    7.0458    3.9559 H         1 RES1    0.0000
     20 H7         4.2864    5.8432    3.1028 H         1 RES1    0.0000
     21 C10        6.3003    6.0710    2.9353 C.3       1 RES1    0.0000
     22 H8         7.0119    6.3720    3.5049 H         1 RES1    0.0000
     23 H9         6.2514    6.6341    2.1598 H         1 RES1    0.0000
     24 H10        6.4688    5.1659    2.6640 H         1 RES1    0.0000
     25 C11        5.0198    2.9456    8.7482 C.3       1 RES1    0.0000
     26 H11        5.0299    2.0162    8.5084 H         1 RES1    0.0000
     27 H12        5.2580    3.0394    9.6738 H         1 RES1    0.0000
     28 H13        5.6507    3.4229    8.2048 H         1 RES1    0.0000
@<TRIPOS>BOND
     1    1   12 1
     2    2    3 1
     3    3    4 ar
     4    4    5 1
     5    6    3 ar
     6    7    6 1
     7    8    6 ar
     8    9    8 1
     9   10    8 ar
    10   11   10 1
    11   12    2 2
    12   13    4 ar
    13   14   13 1
    14   15    1 1
    15   16   15 2
    16   17   15 1
    17   18   17 1
    18   19   18 1
    19   20   18 1
    20   21   18 1
    21   22   21 1
    22   23   21 1
    23   24   21 1
    24   25    2 1
    25   26   25 1
    26   27   25 1
    27   28   25 1
    28   10   13 ar
@<TRIPOS>SUBSTRUCTURE
     1 RES1 1

@<TRIPOS>CRYSIN
   8.0634    8.3096    9.2464  75.5600  72.7880  68.1110   2 1

