# MOL2 file generated by ConQuest
# Please check atom types

@<TRIPOS>MOLECULE
YILYOJ
    67    67     1
SMALL
NO_CHARGES
****
Generated from CSD

@<TRIPOS>ATOM
      1 O1         0.8813    4.2982   44.3352 O.2       1 RES1    0.0000
      2 O2         2.3599    5.4502   45.3834 O.2       1 RES1    0.0000
      3 O3         6.7722    4.4647   40.1453 O.2       1 RES1    0.0000
      4 O4         5.2812    3.0198   39.2832 O.3       1 RES1    0.0000
      5 N1         1.9912    4.8003   44.4274 N.pl3     1 RES1    0.0000
      6 C1         2.9391    4.5729   43.3192 C.ar      1 RES1    0.0000
      7 C2         2.5454    3.7661   42.2740 C.ar      1 RES1    0.0000
      8 C3         3.4404    3.5423   41.2384 C.ar      1 RES1    0.0000
      9 C4         4.6985    4.1268   41.2752 C.ar      1 RES1    0.0000
     10 C5         5.0609    4.9465   42.3424 C.ar      1 RES1    0.0000
     11 C6         4.1766    5.1770   43.3771 C.ar      1 RES1    0.0000
     12 C7         5.7096    3.9124   40.1907 C.2       1 RES1    0.0000
     13 C8         6.1706    2.7843   38.1505 C.3       1 RES1    0.0000
     14 C9         7.3541    2.0237   38.5694 C.1       1 RES1    0.0000
     15 C10        8.2959    1.3518   38.8276 C.1       1 RES1    0.0000
     16 C11        5.3516    2.0247   37.1201 C.3       1 RES1    0.0000
     17 C12        4.1766    2.8188   36.5685 C.3       1 RES1    0.0000
     18 C13        3.3755    2.0230   35.5474 C.3       1 RES1    0.0000
     19 C14        2.1885    2.7947   34.9844 C.3       1 RES1    0.0000
     20 C15        1.3860    2.0136   33.9561 C.3       1 RES1    0.0000
     21 C16        0.2037    2.7905   33.3872 C.3       1 RES1    0.0000
     22 C17       -0.6007    2.0122   32.3547 C.3       1 RES1    0.0000
     23 C18       -1.7822    2.7891   31.7925 C.3       1 RES1    0.0000
     24 C19       -2.5880    2.0135   30.7566 C.3       1 RES1    0.0000
     25 C20       -3.7679    2.7902   30.1911 C.3       1 RES1    0.0000
     26 C21       -4.5640    2.0182   29.1480 C.3       1 RES1    0.0000
     27 C22       -5.7459    2.7924   28.5825 C.3       1 RES1    0.0000
     28 C23       -6.5507    2.0186   27.5465 C.3       1 RES1    0.0000
     29 C24       -7.7586    2.7811   27.0170 C.3       1 RES1    0.0000
     30 C25       -8.5828    1.9868   26.0140 C.3       1 RES1    0.0000
     31 H1         1.7265    3.4359   42.2401 H         1 RES1    0.0000
     32 H2         3.1818    2.9625   40.5242 H         1 RES1    0.0000
     33 H3         5.9203    5.3494   42.3543 H         1 RES1    0.0000
     34 H4         4.3791    5.7167   44.0998 H         1 RES1    0.0000
     35 H5         6.4231    3.6816   37.8318 H         1 RES1    0.0000
     36 H6         9.0360    0.8756   39.0026 H         1 RES1    0.0000
     37 H7         5.0273    1.1867   37.5191 H         1 RES1    0.0000
     38 H8         5.9270    1.7588   36.3906 H         1 RES1    0.0000
     39 H9         3.5853    3.0577   37.3035 H         1 RES1    0.0000
     40 H10        4.5246    3.6459   36.1539 H         1 RES1    0.0000
     41 H11        3.0429    1.1935   35.9595 H         1 RES1    0.0000
     42 H12        3.9425    1.7792   34.7972 H         1 RES1    0.0000
     43 H13        1.6074    3.0203   35.7143 H         1 RES1    0.0000
     44 H14        2.4938    3.6238   34.5859 H         1 RES1    0.0000
     45 H15        1.0253    1.1918   34.3788 H         1 RES1    0.0000
     46 H16        1.9779    1.7622   33.2376 H         1 RES1    0.0000
     47 H17       -0.3903    3.0169   34.1125 H         1 RES1    0.0000
     48 H18        0.5292    3.6485   32.9755 H         1 RES1    0.0000
     49 H19       -0.9525    1.1654   32.7727 H         1 RES1    0.0000
     50 H20       -0.0331    1.7834   31.6230 H         1 RES1    0.0000
     51 H21       -2.3880    3.0534   32.5318 H         1 RES1    0.0000
     52 H22       -1.4487    3.6349   31.3906 H         1 RES1    0.0000
     53 H23       -2.9172    1.1773   31.1793 H         1 RES1    0.0000
     54 H24       -2.0043    1.7817   30.0127 H         1 RES1    0.0000
     55 H25       -4.3791    3.0186   30.9637 H         1 RES1    0.0000
     56 H26       -3.4464    3.6621   29.7887 H         1 RES1    0.0000
     57 H27       -4.9149    1.1765   29.5689 H         1 RES1    0.0000
     58 H28       -3.9756    1.8098   28.4193 H         1 RES1    0.0000
     59 H29       -6.3569    3.0449   29.3196 H         1 RES1    0.0000
     60 H30       -5.4374    3.6187   28.1657 H         1 RES1    0.0000
     61 H31       -6.8266    1.1722   27.9417 H         1 RES1    0.0000
     62 H32       -5.9799    1.8174   26.8217 H         1 RES1    0.0000
     63 H33       -8.3546    3.0381   27.7811 H         1 RES1    0.0000
     64 H34       -7.4748    3.5915   26.5935 H         1 RES1    0.0000
     65 H35       -8.8970    1.1901   26.4202 H         1 RES1    0.0000
     66 H36       -8.0768    1.7197   25.2156 H         1 RES1    0.0000
     67 H37       -9.3469    2.5272   25.6763 H         1 RES1    0.0000
@<TRIPOS>BOND
     1    1    5 2
     2    2    5 2
     3    3   12 2
     4    4   12 1
     5    5    6 1
     6    6    7 ar
     7    7    8 ar
     8    8    9 ar
     9    9   10 ar
    10   10   11 ar
    11   11    6 ar
    12   12    9 1
    13   13    4 1
    14   14   13 1
    15   15   14 3
    16   16   13 1
    17   17   16 1
    18   18   17 1
    19   19   18 1
    20   20   19 1
    21   21   20 1
    22   22   21 1
    23   23   22 1
    24   24   23 1
    25   25   24 1
    26   26   25 1
    27   27   26 1
    28   28   27 1
    29   29   28 1
    30   30   29 1
    31   31    7 1
    32   32    8 1
    33   33   10 1
    34   34   11 1
    35   35   13 1
    36   36   15 1
    37   37   16 1
    38   38   16 1
    39   39   17 1
    40   40   17 1
    41   41   18 1
    42   42   18 1
    43   43   19 1
    44   44   19 1
    45   45   20 1
    46   46   20 1
    47   47   21 1
    48   48   21 1
    49   49   22 1
    50   50   22 1
    51   51   23 1
    52   52   23 1
    53   53   24 1
    54   54   24 1
    55   55   25 1
    56   56   25 1
    57   57   26 1
    58   58   26 1
    59   59   27 1
    60   60   27 1
    61   61   28 1
    62   62   28 1
    63   63   29 1
    64   64   29 1
    65   65   30 1
    66   66   30 1
    67   67   30 1
@<TRIPOS>SUBSTRUCTURE
     1 RES1 1

@<TRIPOS>CRYSIN
   6.6149    8.5006   42.2655  90.0000  90.0000  90.0000  19 1

