# MOL2 file generated by ConQuest
# Please check atom types

@<TRIPOS>MOLECULE
YIMWIC02
    27    28     1
SMALL
NO_CHARGES
****
Generated from CSD

@<TRIPOS>ATOM
      1 O1        -1.2729    2.6364    9.6393 O.3       1 RES1    0.0000
      2 O2         0.5111    2.3641   10.9354 O.2       1 RES1    0.0000
      3 O3         6.9907    2.8131   10.5192 O.3       1 RES1    0.0000
      4 N1        -1.5873    2.7819    8.2431 N.2       1 RES1    0.0000
      5 C1        -0.4451    2.7625    7.6191 C.2       1 RES1    0.0000
      6 C2         0.6857    2.6378    8.5096 C.2       1 RES1    0.0000
      7 C3         0.0625    2.5338    9.8134 C.2       1 RES1    0.0000
      8 C4         1.9687    2.6010    8.0762 C.2       1 RES1    0.0000
      9 H1         2.0428    2.5782    7.1490 H         1 RES1    0.0000
     10 C5         3.2397    2.5899    8.7488 C.ar      1 RES1    0.0000
     11 C6         3.4248    2.7202   10.1331 C.ar      1 RES1    0.0000
     12 H2         2.6834    2.7673   10.6921 H         1 RES1    0.0000
     13 C7         4.6596    2.7770   10.6636 C.ar      1 RES1    0.0000
     14 H3         4.7549    2.8609   11.5849 H         1 RES1    0.0000
     15 C8         5.7897    2.7140    9.8702 C.ar      1 RES1    0.0000
     16 C9         5.6664    2.5685    8.5072 C.ar      1 RES1    0.0000
     17 H4         6.4210    2.5172    7.9660 H         1 RES1    0.0000
     18 C10        4.3942    2.4992    7.9554 C.ar      1 RES1    0.0000
     19 H5         4.3043    2.3897    7.0365 H         1 RES1    0.0000
     20 C11        8.1876    2.8754    9.7198 C.3       1 RES1    0.0000
     21 H6         8.3351    2.0253    9.2983 H         1 RES1    0.0000
     22 H7         8.9369    3.0881   10.2811 H         1 RES1    0.0000
     23 H8         8.0883    3.5530    9.0472 H         1 RES1    0.0000
     24 C12       -0.4413    2.8920    6.1353 C.3       1 RES1    0.0000
     25 H9         0.0378    3.6854    5.8842 H         1 RES1    0.0000
     26 H10       -1.3450    2.9489    5.8167 H         1 RES1    0.0000
     27 H11       -0.0125    2.1250    5.7481 H         1 RES1    0.0000
@<TRIPOS>BOND
     1    1    4 1
     2    2    7 2
     3    3   15 1
     4    4    5 2
     5    5    6 1
     6    6    7 1
     7    7    1 1
     8    8    6 2
     9    9    8 1
    10   10    8 1
    11   11   10 ar
    12   12   11 1
    13   13   11 ar
    14   14   13 1
    15   15   13 ar
    16   16   15 ar
    17   17   16 1
    18   18   10 ar
    19   19   18 1
    20   20    3 1
    21   21   20 1
    22   22   20 1
    23   23   20 1
    24   24    5 1
    25   25   24 1
    26   26   24 1
    27   27   24 1
    28   16   18 ar
@<TRIPOS>SUBSTRUCTURE
     1 RES1 1

@<TRIPOS>CRYSIN
  12.8478    6.9287   12.8161  90.0000 112.4840  90.0000  14 1

