# MOL2 file generated by ConQuest
# Please check atom types

@<TRIPOS>MOLECULE
YIMWIC01
    27    28     1
SMALL
NO_CHARGES
****
Generated from CSD

@<TRIPOS>ATOM
      1 C1         3.8259    0.5843    8.0365 C.3       1 RES1    0.0000
      2 H1         3.9024   -0.1288    8.6747 H         1 RES1    0.0000
      3 H2         3.0731    0.4209    7.4630 H         1 RES1    0.0000
      4 H3         3.7009    1.4158    8.4994 H         1 RES1    0.0000
      5 C2         6.2041    0.7590    7.8949 C.ar      1 RES1    0.0000
      6 C3         6.3516    0.9109    9.2685 C.ar      1 RES1    0.0000
      7 H4         5.6034    0.9727    9.8165 H         1 RES1    0.0000
      8 C4         7.6187    0.9696    9.8108 C.ar      1 RES1    0.0000
      9 H5         7.7112    1.0641   10.7309 H         1 RES1    0.0000
     10 C5         8.7702    0.8915    9.0152 C.ar      1 RES1    0.0000
     11 C6         8.5911    0.7624    7.6303 C.ar      1 RES1    0.0000
     12 H6         9.3348    0.7179    7.0734 H         1 RES1    0.0000
     13 C7         7.3392    0.7007    7.0868 C.ar      1 RES1    0.0000
     14 H7         7.2425    0.6189    6.1649 H         1 RES1    0.0000
     15 C8        10.0403    0.8780    9.6945 C.2       1 RES1    0.0000
     16 H8         9.9611    0.8986   10.6207 H         1 RES1    0.0000
     17 C9        11.3297    0.8419    9.2662 C.2       1 RES1    0.0000
     18 C10       11.9295    0.9397    7.9333 C.2       1 RES1    0.0000
     19 C11       12.4739    0.7072   10.1432 C.2       1 RES1    0.0000
     20 C12       12.4562    0.5767   11.6236 C.3       1 RES1    0.0000
     21 H9        13.3573    0.5649   11.9544 H         1 RES1    0.0000
     22 H10       12.0148   -0.2402   11.8679 H         1 RES1    0.0000
     23 H11       11.9840    1.3209   12.0053 H         1 RES1    0.0000
     24 N1        13.5951    0.6794    9.5125 N.2       1 RES1    0.0000
     25 O1         5.0181    0.6502    7.2523 O.3       1 RES1    0.0000
     26 O2        11.4902    1.1161    6.8265 O.2       1 RES1    0.0000
     27 O3        13.2820    0.8274    8.1084 O.3       1 RES1    0.0000
@<TRIPOS>BOND
     1    1    2 1
     2    3    1 1
     3    4    1 1
     4    5    6 ar
     5    6    7 1
     6    8    6 ar
     7    9    8 1
     8   10    8 ar
     9   11   10 ar
    10   12   11 1
    11   13    5 ar
    12   14   13 1
    13   15   10 1
    14   16   15 1
    15   17   15 2
    16   18   17 1
    17   19   17 1
    18   20   19 1
    19   21   20 1
    20   22   20 1
    21   23   20 1
    22   24   19 2
    23   25    1 1
    24   26   18 2
    25   27   18 1
    26    5   25 1
    27   11   13 ar
    28   24   27 1
@<TRIPOS>SUBSTRUCTURE
     1 RES1 1

@<TRIPOS>CRYSIN
  12.8234    6.9230   12.7631  90.0000 111.8740  90.0000  14 1

