# MOL2 file generated by ConQuest
# Please check atom types

@<TRIPOS>MOLECULE
YINFIM
    64    53     2
SMALL
NO_CHARGES
****
Generated from CSD

@<TRIPOS>ATOM
      1 N1         0.3128    4.8464    6.2280 N.3       1 RES1    0.0000
      2 H1         0.7082    4.0318    6.4002 H         1 RES1    0.0000
      3 C1         0.4654    5.7391    7.3759 C.3       1 RES1    0.0000
      4 H2        -0.2125    6.4681    7.2816 H         1 RES1    0.0000
      5 C2         1.8901    6.3886    7.1825 C.3       1 RES1    0.0000
      6 H3         1.9019    7.3075    7.5757 H         1 RES1    0.0000
      7 N2         2.0049    6.4681    5.7209 N.3       1 RES1    0.0000
      8 C3         1.6850    7.8121    5.1883 C.3       1 RES1    0.0000
      9 H4         2.5093    8.3436    5.0520 H         1 RES1    0.0000
     10 H5         1.0862    8.3031    5.8046 H         1 RES1    0.0000
     11 C4         0.9925    7.5373    3.8622 C.3       1 RES1    0.0000
     12 H6         0.4306    8.3038    3.5831 H         1 RES1    0.0000
     13 H7         1.6471    7.3361    3.1477 H         1 RES1    0.0000
     14 C5         0.1483    6.3277    4.1923 C.3       1 RES1    0.0000
     15 H8        -0.0768    5.8202    3.3724 H         1 RES1    0.0000
     16 H9        -0.6909    6.5958    4.6441 H         1 RES1    0.0000
     17 C6         1.0300    5.4898    5.1294 C.3       1 RES1    0.0000
     18 C7         0.2046    5.0446    8.6913 C.ar      1 RES1    0.0000
     19 C8        -0.5607    5.6032    9.7198 C.ar      1 RES1    0.0000
     20 C9        -0.8086    4.9560   10.9261 C.ar      1 RES1    0.0000
     21 H10       -1.3499    5.3675   11.5898 H         1 RES1    0.0000
     22 C10       -0.2644    3.7225   11.1445 C.ar      1 RES1    0.0000
     23 H11       -0.4054    3.2802   11.9733 H         1 RES1    0.0000
     24 C11        0.4877    3.1226   10.1595 C.ar      1 RES1    0.0000
     25 H12        0.8576    2.2599   10.3066 H         1 RES1    0.0000
     26 C12        0.7075    3.7728    8.9519 C.ar      1 RES1    0.0000
     27 H13        1.2182    3.3351    8.2812 H         1 RES1    0.0000
     28 N3        -1.1639    6.9246    9.5619 N.pl3     1 RES1    0.0000
     29 O1        -0.4711    7.8293    9.1206 O.2       1 RES1    0.0000
     30 O2        -2.3335    7.0643    9.8883 O.2       1 RES1    0.0000
     31 C13        3.0099    5.5552    7.7808 C.ar      1 RES1    0.0000
     32 C14        3.3460    5.5326    9.1412 C.ar      1 RES1    0.0000
     33 C15        4.2593    4.6475    9.7029 C.ar      1 RES1    0.0000
     34 H14        4.4235    4.6527   10.6391 H         1 RES1    0.0000
     35 C16        4.9184    3.7683    8.8840 C.ar      1 RES1    0.0000
     36 H15        5.5491    3.1586    9.2494 H         1 RES1    0.0000
     37 C17        4.6622    3.7713    7.5259 C.ar      1 RES1    0.0000
     38 H16        5.1367    3.1819    6.9506 H         1 RES1    0.0000
     39 C18        3.7095    4.6384    7.0003 C.ar      1 RES1    0.0000
     40 H17        3.5270    4.6032    6.0685 H         1 RES1    0.0000
     41 N4         2.7304    6.4696   10.0887 N.pl3     1 RES1    0.0000
     42 O3         2.6254    7.6507    9.7728 O.2       1 RES1    0.0000
     43 O4         2.3945    6.0484   11.1851 O.2       1 RES1    0.0000
     44 C19        1.7389    4.3877    4.3457 C.2       1 RES1    0.0000
     45 O5         1.5486    3.2277    4.5194 O.2       1 RES1    0.0000
     46 O6         2.5773    4.8502    3.4415 O.3       1 RES1    0.0000
     47 C20        3.2963    3.8463    2.6744 C.3       1 RES1    0.0000
     48 H18        3.9689    4.2848    2.1116 H         1 RES1    0.0000
     49 H19        2.6651    3.3561    2.1071 H         1 RES1    0.0000
     50 H20        3.7383    3.2224    3.2867 H         1 RES1    0.0000
     51 H21        1.8664    7.3180    7.5491 Du        2 SUP2    0.0000
     52 C21        3.0077    5.6325    7.8665 Du        2 SUP2    0.0000
     53 C22        3.3060    5.8675    9.2111 Du        2 SUP2    0.0000
     54 C23        4.1846    5.0491    9.9014 Du        2 SUP2    0.0000
     55 H22        4.3603    5.2181   10.8196 Du        2 SUP2    0.0000
     56 C24        4.8001    4.0025    9.2765 Du        2 SUP2    0.0000
     57 H23        5.3702    3.4214    9.7661 Du        2 SUP2    0.0000
     58 C25        4.5916    3.7930    7.9320 Du        2 SUP2    0.0000
     59 H24        5.0473    3.0918    7.4808 Du        2 SUP2    0.0000
     60 C26        3.7127    4.6122    7.2371 Du        2 SUP2    0.0000
     61 H25        3.5885    4.4725    6.3054 Du        2 SUP2    0.0000
     62 N5         2.7311    7.0065    9.9240 Du        2 SUP2    0.0000
     63 O7         2.7811    8.1079    9.3983 Du        2 SUP2    0.0000
     64 O8         2.2620    6.8083   11.0339 Du        2 SUP2    0.0000
@<TRIPOS>BOND
     1    1    2 1
     2    3    1 1
     3    4    3 1
     4    5    3 1
     5    6    5 1
     6    7    5 1
     7    8    7 1
     8    9    8 1
     9   10    8 1
    10   11    8 1
    11   12   11 1
    12   13   11 1
    13   14   11 1
    14   15   14 1
    15   16   14 1
    16   17    1 1
    17   18    3 1
    18   19   18 ar
    19   20   19 ar
    20   21   20 1
    21   22   20 ar
    22   23   22 1
    23   24   22 ar
    24   25   24 1
    25   26   18 ar
    26   27   26 1
    27   28   19 1
    28   29   28 2
    29   30   28 2
    30   31    5 1
    31   32   31 ar
    32   33   32 ar
    33   34   33 1
    34   35   33 ar
    35   36   35 1
    36   37   35 ar
    37   38   37 1
    38   39   31 ar
    39   40   39 1
    40   41   32 1
    41   42   41 2
    42   43   41 2
    43   44   17 1
    44   45   44 2
    45   46   44 1
    46   47   46 1
    47   48   47 1
    48   49   47 1
    49   50   47 1
    50    7   17 1
    51   14   17 1
    52   24   26 ar
    53   37   39 ar
@<TRIPOS>SUBSTRUCTURE
     1 RES1 1
     2 SUP2 51

@<TRIPOS>CRYSIN
  11.6597    7.5080   22.9561  90.0000 100.6640  90.0000  14 1

