# MOL2 file generated by ConQuest
# Please check atom types

@<TRIPOS>MOLECULE
YIPQEV
    49    52     1
SMALL
NO_CHARGES
****
Generated from CSD

@<TRIPOS>ATOM
      1 O1         6.1145    4.0004    3.7295 O.3       1 RES1    0.0000
      2 O2         2.5082    4.0279    9.7171 O.2       1 RES1    0.0000
      3 O3         3.9544    5.1018   10.9233 O.2       1 RES1    0.0000
      4 N1         3.6401    4.4978    9.8880 N.pl3     1 RES1    0.0000
      5 N2         7.2546    3.8740    5.7346 N.pl3     1 RES1    0.0000
      6 C1         4.6267    4.3412    8.8354 C.ar      1 RES1    0.0000
      7 C2         5.8353    5.0027    8.9548 C.ar      1 RES1    0.0000
      8 C3         6.5708    3.0479    4.7699 C.3       1 RES1    0.0000
      9 C4         5.9151    3.5719    2.4563 C.ar      1 RES1    0.0000
     10 C5         7.5062    2.0374    4.1316 C.3       1 RES1    0.0000
     11 C6         8.4288    4.6789    5.4020 C.3       1 RES1    0.0000
     12 C7         4.3248    3.5145    7.7460 C.ar      1 RES1    0.0000
     13 C8         6.4757    4.1158    6.8456 C.ar      1 RES1    0.0000
     14 C9         6.7800    4.9122    7.9495 C.ar      1 RES1    0.0000
     15 C10        4.0150    2.4987    4.7494 C.3       1 RES1    0.0000
     16 C11        5.3174    2.4802    5.5561 C.3       1 RES1    0.0000
     17 C12        5.2742    3.4021    6.7609 C.ar      1 RES1    0.0000
     18 C13        5.5788    1.0640    6.1009 C.3       1 RES1    0.0000
     19 C14        5.9697    1.9594    0.6940 C.ar      1 RES1    0.0000
     20 C15        6.2438    2.2839    2.0145 C.ar      1 RES1    0.0000
     21 C16        5.3552    4.5104    1.5897 C.ar      1 RES1    0.0000
     22 C17        6.8573    1.3032    2.9646 C.3       1 RES1    0.0000
     23 C18        5.0857    4.1727    0.2797 C.ar      1 RES1    0.0000
     24 C19        9.7163    4.1119    5.9462 C.3       1 RES1    0.0000
     25 N3         5.0847    2.5007   -1.5272 N.pl3     1 RES1    0.0000
     26 C20        5.3942    2.8847   -0.1494 C.ar      1 RES1    0.0000
     27 O4         4.4913    3.3036   -2.2377 O.2       1 RES1    0.0000
     28 O5         5.4333    1.3924   -1.9143 O.2       1 RES1    0.0000
     29 H1         5.9789    5.5982    9.7732 H         1 RES1    0.0000
     30 H2         3.5086    2.9914    7.7572 H         1 RES1    0.0000
     31 H3         4.7255    4.8558   -0.3624 H         1 RES1    0.0000
     32 H4         7.6628    5.2864    8.0784 H         1 RES1    0.0000
     33 H5         8.2972    2.4374    3.7770 H         1 RES1    0.0000
     34 H6         7.7891    1.4512    4.9294 H         1 RES1    0.0000
     35 H7         5.1518    5.3903    1.9153 H         1 RES1    0.0000
     36 H8         6.4461    1.0214    6.5999 H         1 RES1    0.0000
     37 H9         5.5880    0.3863    5.3751 H         1 RES1    0.0000
     38 H10        8.5563    4.7211    4.3689 H         1 RES1    0.0000
     39 H11        3.8752    3.3322    4.3342 H         1 RES1    0.0000
     40 H12        3.9718    1.7635    4.0577 H         1 RES1    0.0000
     41 H13        4.8572    0.8329    6.6954 H         1 RES1    0.0000
     42 H14        3.2516    2.2598    5.3327 H         1 RES1    0.0000
     43 H15        8.2885    5.5786    5.6806 H         1 RES1    0.0000
     44 H16        6.1840    1.0860    0.3579 H         1 RES1    0.0000
     45 H17        7.5219    0.7899    2.4995 H         1 RES1    0.0000
     46 H18        6.1755    0.7160    3.2991 H         1 RES1    0.0000
     47 H19       10.4469    4.6821    5.6969 H         1 RES1    0.0000
     48 H20        9.8570    3.2342    5.5831 H         1 RES1    0.0000
     49 H21        9.6647    4.0575    6.9033 H         1 RES1    0.0000
@<TRIPOS>BOND
     1    1    8 1
     2    2    4 2
     3    3    4 2
     4    4    6 1
     5    5    8 1
     6    6    7 ar
     7    7   14 ar
     8    8   10 1
     9    9    1 1
    10   10   22 1
    11   11    5 1
    12   12    6 ar
    13   13    5 1
    14   14   13 ar
    15   15   16 1
    16   16    8 1
    17   17   12 ar
    18   18   16 1
    19   19   20 ar
    20   20    9 ar
    21   21    9 ar
    22   22   20 1
    23   23   21 ar
    24   24   11 1
    25   25   26 1
    26   26   19 ar
    27   27   25 2
    28   28   25 2
    29   29    7 1
    30   30   12 1
    31   31   23 1
    32   32   14 1
    33   33   10 1
    34   34   10 1
    35   35   21 1
    36   36   18 1
    37   37   18 1
    38   38   11 1
    39   39   15 1
    40   40   15 1
    41   41   18 1
    42   42   15 1
    43   43   11 1
    44   44   19 1
    45   45   22 1
    46   46   22 1
    47   47   24 1
    48   48   24 1
    49   49   24 1
    50   13   17 ar
    51   16   17 1
    52   23   26 ar
@<TRIPOS>SUBSTRUCTURE
     1 RES1 1

@<TRIPOS>CRYSIN
  14.5537    6.6086   18.8774  90.0000  96.0266  90.0000  14 2

