# MOL2 file generated by ConQuest
# Please check atom types

@<TRIPOS>MOLECULE
YIPXAY
    51    54     1
SMALL
NO_CHARGES
****
Generated from CSD

@<TRIPOS>ATOM
      1 C1         9.3504    7.4498    0.5628 C.ar      1 RES1    0.0000
      2 C2        10.0283    8.6258    0.7442 C.ar      1 RES1    0.0000
      3 H1         9.8039    9.1903    1.4494 H         1 RES1    0.0000
      4 C3        11.0507    8.9760   -0.1254 C.ar      1 RES1    0.0000
      5 H2        11.5468    9.7508    0.0068 H         1 RES1    0.0000
      6 C4        11.3091    8.1481   -1.1833 C.ar      1 RES1    0.0000
      7 C5        10.6314    6.9745   -1.4019 C.ar      1 RES1    0.0000
      8 H3        10.8401    6.4309   -2.1275 H         1 RES1    0.0000
      9 C6         9.6250    6.6207   -0.5120 C.ar      1 RES1    0.0000
     10 H4         9.1415    5.8363   -0.6357 H         1 RES1    0.0000
     11 C7         7.0125    7.4071    3.2429 C.ar      1 RES1    0.0000
     12 C8         6.2205    8.4197    3.8379 C.ar      1 RES1    0.0000
     13 C9         6.3466    9.7939    3.5379 C.ar      1 RES1    0.0000
     14 H5         7.0148   10.0724    2.9530 H         1 RES1    0.0000
     15 C10        5.5102   10.7239    4.0854 C.ar      1 RES1    0.0000
     16 H6         5.6239   11.6270    3.8922 H         1 RES1    0.0000
     17 C11        4.4701   10.3085    4.9483 C.ar      1 RES1    0.0000
     18 H7         3.8696   10.9350    5.2822 H         1 RES1    0.0000
     19 C12        4.3428    9.0067    5.2924 C.ar      1 RES1    0.0000
     20 H8         3.6736    8.7530    5.8857 H         1 RES1    0.0000
     21 C13        5.2119    8.0242    4.7601 C.ar      1 RES1    0.0000
     22 C14        5.1250    6.6776    5.1534 C.ar      1 RES1    0.0000
     23 C15        5.9588    5.7066    4.6109 C.ar      1 RES1    0.0000
     24 C16        6.8904    6.1035    3.6362 C.ar      1 RES1    0.0000
     25 H9         7.4385    5.4608    3.2463 H         1 RES1    0.0000
     26 C17        5.8498    4.2716    5.0551 C.3       1 RES1    0.0000
     27 H10        5.0980    3.8534    4.6059 H         1 RES1    0.0000
     28 H11        6.6542    3.7951    4.7991 H         1 RES1    0.0000
     29 C18        5.3389    2.8056    6.9181 C.3       1 RES1    0.0000
     30 H12        6.0612    2.2109    6.6604 H         1 RES1    0.0000
     31 H13        4.5352    2.5166    6.4570 H         1 RES1    0.0000
     32 C19        5.1217    2.7124    8.4082 C.3       1 RES1    0.0000
     33 H14        4.9551    1.7879    8.6489 H         1 RES1    0.0000
     34 H15        4.3358    3.2284    8.6472 H         1 RES1    0.0000
     35 C20        6.3174    3.2271    9.1965 C.3       1 RES1    0.0000
     36 H16        6.1048    3.2464   10.1424 H         1 RES1    0.0000
     37 H17        7.0771    2.6371    9.0676 H         1 RES1    0.0000
     38 C21        6.6613    4.6227    8.7150 C.3       1 RES1    0.0000
     39 H18        5.9417    5.2310    8.9473 H         1 RES1    0.0000
     40 H19        7.4680    4.9286    9.1592 H         1 RES1    0.0000
     41 C22        6.8707    4.6410    7.2266 C.3       1 RES1    0.0000
     42 H20        7.0805    5.5435    6.9419 H         1 RES1    0.0000
     43 H21        7.6238    4.0722    7.0012 H         1 RES1    0.0000
     44 N1         8.3459    6.9543    1.4747 N.2       1 RES1    0.0000
     45 N2         7.9479    7.8553    2.2743 N.2       1 RES1    0.0000
     46 N3        12.4212    8.5137   -2.0970 N.pl3     1 RES1    0.0000
     47 N4         5.6660    4.1674    6.5111 N.3       1 RES1    0.0000
     48 O1         4.2337    6.3494    6.1209 O.3       1 RES1    0.0000
     49 O2        12.5747    7.8263   -3.1070 O.2       1 RES1    0.0000
     50 O3        13.1012    9.4878   -1.8156 O.2       1 RES1    0.0000
     51 H22        4.5483    5.3775    6.5096 H         1 RES1    0.0000
@<TRIPOS>BOND
     1    1    2 ar
     2    2    3 1
     3    4    2 ar
     4    5    4 1
     5    6    4 ar
     6    7    6 ar
     7    8    7 1
     8    9    1 ar
     9   10    9 1
    10   11   12 ar
    11   12   13 ar
    12   13   14 1
    13   15   13 ar
    14   16   15 1
    15   17   15 ar
    16   18   17 1
    17   19   17 ar
    18   20   19 1
    19   21   12 ar
    20   22   21 ar
    21   23   22 ar
    22   24   11 ar
    23   25   24 1
    24   26   23 1
    25   27   26 1
    26   28   26 1
    27   29   30 1
    28   31   29 1
    29   32   29 1
    30   33   32 1
    31   34   32 1
    32   35   32 1
    33   36   35 1
    34   37   35 1
    35   38   35 1
    36   39   38 1
    37   40   38 1
    38   41   38 1
    39   42   41 1
    40   43   41 1
    41   44    1 1
    42   45   11 1
    43   46    6 1
    44   47   26 1
    45   48   22 1
    46   49   46 2
    47   50   46 2
    48   51   48 1
    49    7    9 ar
    50   19   21 ar
    51   23   24 ar
    52   29   47 1
    53   41   47 1
    54   44   45 2
@<TRIPOS>SUBSTRUCTURE
     1 RES1 1

@<TRIPOS>CRYSIN
   5.2175   10.7215   17.2950  82.1970  81.5720  89.0560   2 1

