# MOL2 file generated by ConQuest
# Please check atom types

@<TRIPOS>MOLECULE
YIQRUL
    46    49     1
SMALL
NO_CHARGES
****
Generated from CSD

@<TRIPOS>ATOM
      1 O1         3.6743    5.4522    7.2487 O.2       1 RES1    0.0000
      2 O2         4.9742    3.1325    8.2476 O.2       1 RES1    0.0000
      3 O3         3.0985    2.2678    7.5965 O.2       1 RES1    0.0000
      4 N1         3.7576    3.0930    8.2340 N.pl3     1 RES1    0.0000
      5 C1         2.9598    5.3295    8.2804 C.2       1 RES1    0.0000
      6 C2         3.0530    4.0948    9.0416 C.2       1 RES1    0.0000
      7 C3         2.5783    3.6822   10.2549 C.2       1 RES1    0.0000
      8 C4         2.0017    4.5553   11.2131 C.2       1 RES1    0.0000
      9 C5         1.5880    5.8346   11.0991 C.2       1 RES1    0.0000
     10 C6         1.4985    6.5777    9.8762 C.2       1 RES1    0.0000
     11 C7         2.0312    6.3730    8.6340 C.2       1 RES1    0.0000
     12 C8         2.7048    2.2511   10.6664 C.ar      1 RES1    0.0000
     13 C9         3.9154    1.6494   10.8808 C.ar      1 RES1    0.0000
     14 C10        3.9566    0.3295   11.3001 C.ar      1 RES1    0.0000
     15 C11        2.8070   -0.3783   11.5029 C.ar      1 RES1    0.0000
     16 C12        1.6001    0.2338   11.3001 C.ar      1 RES1    0.0000
     17 C13        1.5446    1.5444   10.8905 C.ar      1 RES1    0.0000
     18 C14        1.1447    6.5341   12.3317 C.ar      1 RES1    0.0000
     19 C15        1.9524    6.4987   13.4446 C.ar      1 RES1    0.0000
     20 C16        1.5671    7.1400   14.6095 C.ar      1 RES1    0.0000
     21 C17        0.3615    7.8010   14.6713 C.ar      1 RES1    0.0000
     22 C18       -0.4437    7.8228   13.5643 C.ar      1 RES1    0.0000
     23 C19       -0.0603    7.1992   12.3936 C.ar      1 RES1    0.0000
     24 C20        1.7142    7.3479    7.5617 C.ar      1 RES1    0.0000
     25 C21        1.9045    8.6937    7.7704 C.ar      1 RES1    0.0000
     26 C22        1.5985    9.5813    6.7638 C.ar      1 RES1    0.0000
     27 C23        1.0537    9.1542    5.5737 C.ar      1 RES1    0.0000
     28 C24        0.8632    7.8228    5.3844 C.ar      1 RES1    0.0000
     29 C25        1.1941    6.9010    6.3581 C.ar      1 RES1    0.0000
     30 H1         1.8919    4.1857   12.0595 H         1 RES1    0.0000
     31 H2         0.9772    7.3449    9.9407 H         1 RES1    0.0000
     32 H3         4.7044    2.1237   10.7468 H         1 RES1    0.0000
     33 H4         4.7786   -0.0805   11.4430 H         1 RES1    0.0000
     34 H5         2.8440   -1.2658   11.7767 H         1 RES1    0.0000
     35 H6         0.8120   -0.2402   11.4417 H         1 RES1    0.0000
     36 H7         0.7199    1.9551   10.7628 H         1 RES1    0.0000
     37 H8         2.7619    6.0415   13.4136 H         1 RES1    0.0000
     38 H9         2.1259    7.1243   15.3526 H         1 RES1    0.0000
     39 H10        0.0978    8.2268   15.4557 H         1 RES1    0.0000
     40 H11       -1.2619    8.2643   13.6022 H         1 RES1    0.0000
     41 H12       -0.6145    7.2281   11.6478 H         1 RES1    0.0000
     42 H13        2.2368    9.0017    8.5828 H         1 RES1    0.0000
     43 H14        1.7639   10.4884    6.8884 H         1 RES1    0.0000
     44 H15        0.8191    9.7646    4.9136 H         1 RES1    0.0000
     45 H16        0.5029    7.5253    4.5807 H         1 RES1    0.0000
     46 H17        1.0692    5.9917    6.2078 H         1 RES1    0.0000
@<TRIPOS>BOND
     1    1    5 2
     2    2    4 2
     3    3    4 2
     4    4    6 1
     5    5    6 1
     6    6    7 2
     7    7    8 1
     8    8    9 2
     9    9   10 1
    10   10   11 2
    11   11    5 1
    12   12    7 1
    13   13   12 ar
    14   14   13 ar
    15   15   14 ar
    16   16   15 ar
    17   17   12 ar
    18   18    9 1
    19   19   18 ar
    20   20   19 ar
    21   21   20 ar
    22   22   21 ar
    23   23   18 ar
    24   24   11 1
    25   25   24 ar
    26   26   25 ar
    27   27   26 ar
    28   28   27 ar
    29   29   24 ar
    30   30    8 1
    31   31   10 1
    32   32   13 1
    33   33   14 1
    34   34   15 1
    35   35   16 1
    36   36   17 1
    37   37   19 1
    38   38   20 1
    39   39   21 1
    40   40   22 1
    41   41   23 1
    42   42   25 1
    43   43   26 1
    44   44   27 1
    45   45   28 1
    46   46   29 1
    47   16   17 ar
    48   22   23 ar
    49   28   29 ar
@<TRIPOS>SUBSTRUCTURE
     1 RES1 1

@<TRIPOS>CRYSIN
   9.4830   10.3930   19.3200  90.0000  90.3400  90.0000 231 1

