# MOL2 file generated by ConQuest
# Please check atom types

@<TRIPOS>MOLECULE
YIQTEY
    44    45     1
SMALL
NO_CHARGES
****
Generated from CSD

@<TRIPOS>ATOM
      1 N1         3.9108    0.7917    5.1007 N.2       1 RES1    0.0000
      2 O1         3.6471    0.0305    6.2519 O.3       1 RES1    0.0000
      3 O2         5.4404    1.7008    3.2591 O.3       1 RES1    0.0000
      4 H1         5.2551    1.2638    3.9268 H         1 RES1    0.0000
      5 C1         4.8809   -0.5172    6.7281 C.3       1 RES1    0.0000
      6 H2         5.4182   -0.8127    5.9764 H         1 RES1    0.0000
      7 H3         4.7003   -1.2862    7.2919 H         1 RES1    0.0000
      8 C2         1.5224    1.2664    5.2759 C.3       1 RES1    0.0000
      9 H4         1.6085    0.8230    6.1223 H         1 RES1    0.0000
     10 H5         0.9365    0.7611    4.7078 H         1 RES1    0.0000
     11 H6         1.1580    2.1437    5.4104 H         1 RES1    0.0000
     12 C3         2.8648    1.3782    4.6330 C.2       1 RES1    0.0000
     13 C4         3.0681    2.1723    3.4093 C.ar      1 RES1    0.0000
     14 C5         4.3223    2.3050    2.7899 C.ar      1 RES1    0.0000
     15 C6         4.4666    3.0769    1.6509 C.ar      1 RES1    0.0000
     16 H7         5.3016    3.1544    1.2480 H         1 RES1    0.0000
     17 C7         3.3870    3.7271    1.1134 C.ar      1 RES1    0.0000
     18 H8         3.4945    4.2547    0.3552 H         1 RES1    0.0000
     19 C8         2.1436    3.6024    1.6922 C.ar      1 RES1    0.0000
     20 H9         1.4098    4.0360    1.3191 H         1 RES1    0.0000
     21 C9         1.9914    2.8366    2.8205 C.ar      1 RES1    0.0000
     22 H10        1.1472    2.7584    3.2035 H         1 RES1    0.0000
     23 N1B        6.6049   -0.7917    9.1372 N.2       1 RES1    0.0000
     24 O1B        6.8687   -0.0305    7.9860 O.3       1 RES1    0.0000
     25 O2B        5.0753   -1.7008   10.9789 O.3       1 RES1    0.0000
     26 H1B        5.2606   -1.2638   10.3111 H         1 RES1    0.0000
     27 C1B        5.6349    0.5172    7.5098 C.3       1 RES1    0.0000
     28 H2B        5.0975    0.8127    8.2615 H         1 RES1    0.0000
     29 H3B        5.8154    1.2862    6.9460 H         1 RES1    0.0000
     30 C2B        8.9933   -1.2664    8.9621 C.3       1 RES1    0.0000
     31 H4B        8.9072   -0.8230    8.1156 H         1 RES1    0.0000
     32 H5B        9.5793   -0.7611    9.5301 H         1 RES1    0.0000
     33 H6B        9.3578   -2.1437    8.8275 H         1 RES1    0.0000
     34 C3B        7.6509   -1.3782    9.6049 C.2       1 RES1    0.0000
     35 C4B        7.4477   -2.1723   10.8286 C.ar      1 RES1    0.0000
     36 C5B        6.1935   -2.3050   11.4480 C.ar      1 RES1    0.0000
     37 C6B        6.0491   -3.0769   12.5870 C.ar      1 RES1    0.0000
     38 H7B        5.2141   -3.1544   12.9900 H         1 RES1    0.0000
     39 C7B        7.1287   -3.7271   13.1245 C.ar      1 RES1    0.0000
     40 H8B        7.0213   -4.2547   13.8827 H         1 RES1    0.0000
     41 C8B        8.3722   -3.6024   12.5457 C.ar      1 RES1    0.0000
     42 H9B        9.1059   -4.0360   12.9188 H         1 RES1    0.0000
     43 C9B        8.5244   -2.8366   11.4174 C.ar      1 RES1    0.0000
     44 H10B       9.3686   -2.7584   11.0344 H         1 RES1    0.0000
@<TRIPOS>BOND
     1    1    2 1
     2    2    5 1
     3    3    4 1
     4    5    6 1
     5    7    5 1
     6    8    9 1
     7   10    8 1
     8   11    8 1
     9   12    1 2
    10   13   12 1
    11   14    3 1
    12   15   14 ar
    13   16   15 1
    14   17   15 ar
    15   18   17 1
    16   19   17 ar
    17   20   19 1
    18   21   13 ar
    19   22   21 1
    20   23   24 1
    21   24   27 1
    22   25   26 1
    23   27    5 1
    24   28   27 1
    25   29   27 1
    26   30   31 1
    27   32   30 1
    28   33   30 1
    29   34   23 2
    30   35   34 1
    31   36   25 1
    32   37   36 ar
    33   38   37 1
    34   39   37 ar
    35   40   39 1
    36   41   39 ar
    37   42   41 1
    38   43   35 ar
    39   44   43 1
    40    8   12 1
    41   13   14 ar
    42   19   21 ar
    43   30   34 1
    44   35   36 ar
    45   41   43 ar
@<TRIPOS>SUBSTRUCTURE
     1 RES1 1

@<TRIPOS>CRYSIN
   6.9018   17.2184    7.3063  90.0000 103.0030  90.0000 231 1

