# MOL2 file generated by ConQuest
# Please check atom types

@<TRIPOS>MOLECULE
YIRDEK
    40    42     1
SMALL
NO_CHARGES
****
Generated from CSD

@<TRIPOS>ATOM
      1 O1         1.1956    8.7083    7.8037 O.3       1 RES1    0.0000
      2 N1         1.0386    6.8214    4.1334 N.2       1 RES1    0.0000
      3 O2        -0.1538    7.3892    3.5974 O.3       1 RES1    0.0000
      4 O3         5.2676    7.1976    6.8530 O.2       1 RES1    0.0000
      5 O4         5.5807    5.1591    6.0283 O.3       1 RES1    0.0000
      6 O5         4.1110    8.2848    3.7639 O.2       1 RES1    0.0000
      7 O6         4.7082    6.2461    3.0919 O.3       1 RES1    0.0000
      8 C1         2.1664    6.5835    7.2307 C.ar      1 RES1    0.0000
      9 C2         1.4462    7.3752    8.1202 C.ar      1 RES1    0.0000
     10 C3         0.9965    6.8720    9.3259 C.ar      1 RES1    0.0000
     11 H1         0.5318    7.4261    9.9260 H         1 RES1    0.0000
     12 C4         1.2351    5.5482    9.6419 C.ar      1 RES1    0.0000
     13 H2         0.9368    5.2024   10.4640 H         1 RES1    0.0000
     14 C5         1.9054    4.7360    8.7629 C.ar      1 RES1    0.0000
     15 H3         2.0482    3.8310    8.9747 H         1 RES1    0.0000
     16 C6         2.3720    5.2497    7.5628 C.ar      1 RES1    0.0000
     17 H4         2.8339    4.6885    6.9663 H         1 RES1    0.0000
     18 C7         2.6383    7.2115    5.9337 C.3       1 RES1    0.0000
     19 H5         3.0507    8.0796    6.1708 H         1 RES1    0.0000
     20 C8         1.4174    7.5215    5.1134 C.2       1 RES1    0.0000
     21 C9         0.5634    8.7144    5.4132 C.3       1 RES1    0.0000
     22 H6         1.0366    9.5367    5.1300 H         1 RES1    0.0000
     23 C10       -0.5972    8.4497    4.4706 C.3       1 RES1    0.0000
     24 H7        -1.3929    8.1737    4.9716 H         1 RES1    0.0000
     25 H8        -0.8132    9.2544    3.9540 H         1 RES1    0.0000
     26 C11        0.1181    8.8602    6.8698 C.3       1 RES1    0.0000
     27 H9        -0.2878    9.7439    6.9929 H         1 RES1    0.0000
     28 H10       -0.5675    8.1864    7.0627 H         1 RES1    0.0000
     29 C12        3.7152    6.3955    5.2073 C.3       1 RES1    0.0000
     30 H11        3.3781    5.4900    4.9914 H         1 RES1    0.0000
     31 C13        4.9280    6.3084    6.1309 C.2       1 RES1    0.0000
     32 C14        6.7501    5.0512    6.8819 C.3       1 RES1    0.0000
     33 H12        7.4211    5.6888    6.5926 H         1 RES1    0.0000
     34 H13        7.1107    4.1524    6.8233 H         1 RES1    0.0000
     35 H14        6.4992    5.2394    7.7996 H         1 RES1    0.0000
     36 C15        4.1764    7.1072    3.9440 C.2       1 RES1    0.0000
     37 C16        5.2471    6.8023    1.8655 C.3       1 RES1    0.0000
     38 H15        4.5866    7.3828    1.4558 H         1 RES1    0.0000
     39 H16        5.4684    6.0822    1.2543 H         1 RES1    0.0000
     40 H17        6.0467    7.3140    2.0661 H         1 RES1    0.0000
@<TRIPOS>BOND
     1    1    9 1
     2    2    3 1
     3    3   23 1
     4    4   31 2
     5    5   31 1
     6    6   36 2
     7    7   36 1
     8    8    9 ar
     9    9   10 ar
    10   10   11 1
    11   12   10 ar
    12   13   12 1
    13   14   12 ar
    14   15   14 1
    15   16    8 ar
    16   17   16 1
    17   18    8 1
    18   19   18 1
    19   20    2 2
    20   21   20 1
    21   22   21 1
    22   23   21 1
    23   24   23 1
    24   25   23 1
    25   26    1 1
    26   27   26 1
    27   28   26 1
    28   29   18 1
    29   30   29 1
    30   31   29 1
    31   32    5 1
    32   33   32 1
    33   34   32 1
    34   35   32 1
    35   36   29 1
    36   37    7 1
    37   38   37 1
    38   39   37 1
    39   40   37 1
    40   14   16 ar
    41   18   20 1
    42   21   26 1
@<TRIPOS>SUBSTRUCTURE
     1 RES1 1

@<TRIPOS>CRYSIN
   8.2054   10.5740    8.6556  90.0000  95.9600  90.0000   4 1

