# MOL2 file generated by ConQuest
# Please check atom types

@<TRIPOS>MOLECULE
YIRSIC
    29    30     1
SMALL
NO_CHARGES
****
Generated from CSD

@<TRIPOS>ATOM
      1 O1         1.2257   -1.3974    6.5525 O.2       1 RES1    0.0000
      2 O2        -0.3294    1.5679    7.4143 O.3       1 RES1    0.0000
      3 H1        -0.9069    1.7376    7.9719 H         1 RES1    0.0000
      4 O3         6.1789   -4.0729    3.9264 O.2       1 RES1    0.0000
      5 O4         6.6281   -2.0099    3.5342 O.2       1 RES1    0.0000
      6 N1         2.0023    1.0900    6.3594 N.pl3     1 RES1    0.0000
      7 H2         1.4035    0.5127    6.5777 H         1 RES1    0.0000
      8 N2         5.9093   -2.8811    4.0120 N.pl3     1 RES1    0.0000
      9 C1         3.0814    0.6067    5.8247 C.2       1 RES1    0.0000
     10 H3         3.7554    1.2011    5.5820 H         1 RES1    0.0000
     11 C2         3.2885   -0.7684    5.5914 C.2       1 RES1    0.0000
     12 C3         2.3068   -1.7535    5.9766 C.2       1 RES1    0.0000
     13 C4         2.6066   -3.1113    5.6752 C.2       1 RES1    0.0000
     14 H4         1.9947   -3.7719    5.9092 H         1 RES1    0.0000
     15 C5         3.7579   -3.4709    5.0568 C.2       1 RES1    0.0000
     16 H5         3.9285   -4.3678    4.8752 H         1 RES1    0.0000
     17 C6         4.6952   -2.4880    4.6881 C.2       1 RES1    0.0000
     18 C7         4.4683   -1.1693    4.9542 C.2       1 RES1    0.0000
     19 H6         5.1011   -0.5341    4.7108 H         1 RES1    0.0000
     20 C8         1.6797    2.4440    6.6317 C.ar      1 RES1    0.0000
     21 C9         0.4376    2.6634    7.2141 C.ar      1 RES1    0.0000
     22 C10        0.0584    3.9569    7.5374 C.ar      1 RES1    0.0000
     23 H7        -0.7702    4.1161    7.9296 H         1 RES1    0.0000
     24 C11        0.9124    5.0058    7.2775 C.ar      1 RES1    0.0000
     25 H8         0.6596    5.8727    7.5022 H         1 RES1    0.0000
     26 C12        2.1433    4.7829    6.6834 C.ar      1 RES1    0.0000
     27 H9         2.7095    5.5000    6.5065 H         1 RES1    0.0000
     28 C13        2.5312    3.4994    6.3531 C.ar      1 RES1    0.0000
     29 H10        3.3542    3.3470    5.9492 H         1 RES1    0.0000
@<TRIPOS>BOND
     1    1   12 2
     2    2    3 1
     3    4    8 2
     4    5    8 2
     5    6    7 1
     6    8   17 1
     7    9    6 1
     8   10    9 1
     9   11    9 2
    10   12   11 1
    11   13   12 1
    12   14   13 1
    13   15   13 2
    14   16   15 1
    15   17   15 1
    16   18   11 1
    17   19   18 1
    18   20    6 1
    19   21    2 1
    20   22   21 ar
    21   23   22 1
    22   24   22 ar
    23   25   24 1
    24   26   24 ar
    25   27   26 1
    26   28   20 ar
    27   29   28 1
    28   17   18 2
    29   20   21 ar
    30   26   28 ar
@<TRIPOS>SUBSTRUCTURE
     1 RES1 1

@<TRIPOS>CRYSIN
   6.3445   23.7378    7.8450  90.0000  93.7900  90.0000 231 1

