# MOL2 file generated by ConQuest
# Please check atom types

@<TRIPOS>MOLECULE
YISCOS
    38    39     1
SMALL
NO_CHARGES
****
Generated from CSD

@<TRIPOS>ATOM
      1 O1         4.2418   -0.9438    2.6186 O.2       1 RES1    0.0000
      2 O2         2.8701    2.3735    5.5189 O.2       1 RES1    0.0000
      3 O3         1.6328    2.5365    2.6186 O.3       1 RES1    0.0000
      4 N1         3.7390   -0.3433    3.6499 N.3       1 RES1    0.0000
      5 N2         3.1032    1.2306    5.0450 N.pl3     1 RES1    0.0000
      6 C1         3.5572    0.9751    3.7907 C.2       1 RES1    0.0000
      7 C2         3.9001    1.9831    2.7946 C.ar      1 RES1    0.0000
      8 C3         2.9214    2.7968    2.2269 C.ar      1 RES1    0.0000
      9 C4         3.2753    3.7578    1.2792 C.ar      1 RES1    0.0000
     10 C5         4.6091    3.9020    0.8978 C.ar      1 RES1    0.0000
     11 C6         5.5890    3.0868    1.4655 C.ar      1 RES1    0.0000
     12 C7         5.2351    2.1274    2.4132 C.ar      1 RES1    0.0000
     13 C8         3.1752   -1.1476    4.8118 C.3       1 RES1    0.0000
     14 C9         3.0263   -0.0361    5.8856 C.3       1 RES1    0.0000
     15 C10        4.2088    0.0847    6.8245 C.3       1 RES1    0.0000
     16 C11        4.0880   -2.3092    5.1330 C.3       1 RES1    0.0000
     17 C12        1.7267   -0.0768    6.6558 C.3       1 RES1    0.0000
     18 C13        1.8658   -1.7370    4.3086 C.3       1 RES1    0.0000
     19 C14        0.6126    3.3862    2.0142 C.3       1 RES1    0.0000
     20 H1         2.5163    4.3880    0.8391 H         1 RES1    0.0000
     21 H2         4.8836    4.6451    0.1628 H         1 RES1    0.0000
     22 H3         6.6226    3.1997    1.1707 H         1 RES1    0.0000
     23 H4         5.9929    1.4972    2.8533 H         1 RES1    0.0000
     24 H5         4.2039   -0.8011    7.4421 H         1 RES1    0.0000
     25 H6         4.0404    0.9547    7.4406 H         1 RES1    0.0000
     26 H7         5.1655    0.1724    6.0881 H         1 RES1    0.0000
     27 H8         4.9800   -1.7605    5.3927 H         1 RES1    0.0000
     28 H9         4.2881   -2.9394    4.2792 H         1 RES1    0.0000
     29 H10        3.7878   -2.9238    5.9707 H         1 RES1    0.0000
     30 H11        0.9299   -0.2320    5.9428 H         1 RES1    0.0000
     31 H12        1.5156    0.8027    7.2455 H         1 RES1    0.0000
     32 H13        1.7999   -0.9359    7.3071 H         1 RES1    0.0000
     33 H14        1.1593   -0.9500    4.0885 H         1 RES1    0.0000
     34 H15        1.4168   -2.4425    4.9922 H         1 RES1    0.0000
     35 H16        2.1367   -2.2434    3.3932 H         1 RES1    0.0000
     36 H17       -0.3551    3.1965    2.4543 H         1 RES1    0.0000
     37 H18        0.5760    3.1668    0.9580 H         1 RES1    0.0000
     38 H19        0.8762    4.4240    2.1580 H         1 RES1    0.0000
@<TRIPOS>BOND
     1    1    4 1
     2    2    5 1
     3    3    8 1
     4    4    6 1
     5    5    6 2
     6    6    7 1
     7    7    8 ar
     8    8    9 ar
     9    9   10 ar
    10   10   11 ar
    11   11   12 ar
    12   12    7 ar
    13   13    4 1
    14   14    5 1
    15   15   14 1
    16   16   13 1
    17   17   14 1
    18   18   13 1
    19   19    3 1
    20   20    9 1
    21   21   10 1
    22   22   11 1
    23   23   12 1
    24   24   15 1
    25   25   15 1
    26   26   15 1
    27   27   16 1
    28   28   16 1
    29   29   16 1
    30   30   17 1
    31   31   17 1
    32   32   17 1
    33   33   18 1
    34   34   18 1
    35   35   18 1
    36   36   19 1
    37   37   19 1
    38   38   19 1
    39   13   14 1
@<TRIPOS>SUBSTRUCTURE
     1 RES1 1

@<TRIPOS>CRYSIN
  12.2030   15.6770   14.6700  90.0000  90.0000  90.0000  61 1

