# MOL2 file generated by ConQuest
# Please check atom types

@<TRIPOS>MOLECULE
YISCEI
    38    39     1
SMALL
NO_CHARGES
****
Generated from CSD

@<TRIPOS>ATOM
      1 C1         0.1541    7.8143   -0.5124 C.3       1 RES1    0.0000
      2 C2         0.4412    6.8179    0.6005 C.3       1 RES1    0.0000
      3 C3         1.2136    5.6203    0.3836 C.3       1 RES1    0.0000
      4 C4        -0.8103    6.3400    1.3698 C.3       1 RES1    0.0000
      5 C5        -1.2870    7.8626   -0.8952 C.3       1 RES1    0.0000
      6 C6         1.1125    7.5550   -1.6274 C.3       1 RES1    0.0000
      7 C7         1.1189    8.9886    1.2751 C.2       1 RES1    0.0000
      8 C8         1.5589   10.1088    2.0881 C.ar      1 RES1    0.0000
      9 C9         1.5564    9.9618    3.4754 C.ar      1 RES1    0.0000
     10 C10        1.9539   11.0239    4.2891 C.ar      1 RES1    0.0000
     11 C11        2.3535   12.2312    3.7148 C.ar      1 RES1    0.0000
     12 C12        2.3560   12.3763    2.3276 C.ar      1 RES1    0.0000
     13 C13        1.9585   11.3161    1.5139 C.ar      1 RES1    0.0000
     14 C14        2.7003   13.1850    5.8772 C.3       1 RES1    0.0000
     15 N1         1.1377    7.7175    1.6027 N.pl3     1 RES1    0.0000
     16 N2         0.5264    9.1105    0.0393 N.pl3     1 RES1    0.0000
     17 O1         1.6613    7.1874    2.6522 O.2       1 RES1    0.0000
     18 O2         0.3158   10.2017   -0.5757 O.2       1 RES1    0.0000
     19 O3         2.7213   13.3165    4.4332 O.3       1 RES1    0.0000
     20 H1         2.0015    6.0730   -0.1987 H         1 RES1    0.0000
     21 H2         0.7752    4.8058   -0.1754 H         1 RES1    0.0000
     22 H3         1.6208    5.2411    1.3101 H         1 RES1    0.0000
     23 H4        -1.5403    7.1023    1.1427 H         1 RES1    0.0000
     24 H5        -0.8770    6.0769    2.4149 H         1 RES1    0.0000
     25 H6        -1.0036    5.4655    0.7657 H         1 RES1    0.0000
     26 H7        -1.6356    6.8508   -1.0430 H         1 RES1    0.0000
     27 H8        -1.5754    8.4701   -1.7402 H         1 RES1    0.0000
     28 H9        -1.7241    8.2670    0.0058 H         1 RES1    0.0000
     29 H10        1.0892    6.5335   -1.9731 H         1 RES1    0.0000
     30 H11        2.1021    7.9632   -1.7897 H         1 RES1    0.0000
     31 H12        0.3897    8.1393   -2.1733 H         1 RES1    0.0000
     32 H13        1.2465    9.0273    3.9201 H         1 RES1    0.0000
     33 H14        1.9519   10.9117    5.3633 H         1 RES1    0.0000
     34 H15        2.6653   13.3107    1.8836 H         1 RES1    0.0000
     35 H16        1.9599   11.4283    0.4403 H         1 RES1    0.0000
     36 H17        3.0092   14.1581    6.2294 H         1 RES1    0.0000
     37 H18        3.3716   12.4324    6.2651 H         1 RES1    0.0000
     38 H19        1.6955   12.9818    6.2171 H         1 RES1    0.0000
@<TRIPOS>BOND
     1    1    2 1
     2    2    3 1
     3    3   20 1
     4    4    2 1
     5    5    1 1
     6    6    1 1
     7    7    8 1
     8    8    9 ar
     9    9   10 ar
    10   10   11 ar
    11   11   12 ar
    12   12   13 ar
    13   13    8 ar
    14   14   19 1
    15   15    2 1
    16   16    1 1
    17   17   15 1
    18   18   16 1
    19   19   11 1
    20   21    3 1
    21   22    3 1
    22   23    4 1
    23   24    4 1
    24   25    4 1
    25   26    5 1
    26   27    5 1
    27   28    5 1
    28   29    6 1
    29   30    6 1
    30   31    6 1
    31   32    9 1
    32   33   10 1
    33   34   12 1
    34   35   13 1
    35   36   14 1
    36   37   14 1
    37   38   14 1
    38    7   15 1
    39    7   16 2
@<TRIPOS>SUBSTRUCTURE
     1 RES1 1

@<TRIPOS>CRYSIN
   9.9970   19.3470    9.3220  90.0000 128.6700  90.0000   9 1

