# MOL2 file generated by ConQuest
# Please check atom types

@<TRIPOS>MOLECULE
YISYOO
    37    39     1
SMALL
NO_CHARGES
****
Generated from CSD

@<TRIPOS>ATOM
      1 O1         5.5712    1.0805   11.9357 O.2       1 RES1    0.0000
      2 O2         4.0434    2.4399   11.3806 O.2       1 RES1    0.0000
      3 N1         7.1195    6.5980   17.3367 N.1       1 RES1    0.0000
      4 N2         8.0989    3.2079   17.7199 N.3       1 RES1    0.0000
      5 N3         8.0251   -0.2305   16.8389 N.1       1 RES1    0.0000
      6 N4         4.6246    1.7597   12.2059 N.pl3     1 RES1    0.0000
      7 C1         6.6871    4.5100   14.6200 C.2       1 RES1    0.0000
      8 C2         7.0343    4.4290   15.9269 C.2       1 RES1    0.0000
      9 C3         7.4975    3.1596   16.5246 C.2       1 RES1    0.0000
     10 C4         7.2694    2.0048   15.8330 C.2       1 RES1    0.0000
     11 C5         6.5150    1.9969   14.5157 C.3       1 RES1    0.0000
     12 C6         6.8751    3.2889   13.7756 C.3       1 RES1    0.0000
     13 C7         6.1744    5.7446   14.0135 C.3       1 RES1    0.0000
     14 C8         4.9320    5.6850   13.1486 C.3       1 RES1    0.0000
     15 C9         6.2253    5.9874   12.5304 C.3       1 RES1    0.0000
     16 C10        7.0516    5.6265   16.7317 C.1       1 RES1    0.0000
     17 C11        7.6867    0.7702   16.3895 C.1       1 RES1    0.0000
     18 C12        4.9998    1.8485   14.6758 C.ar      1 RES1    0.0000
     19 C13        4.1214    1.7957   13.5803 C.ar      1 RES1    0.0000
     20 C14        2.7526    1.7822   13.7081 C.ar      1 RES1    0.0000
     21 C15        2.2022    1.7552   14.9578 C.ar      1 RES1    0.0000
     22 C16        3.0114    1.7754   16.0532 C.ar      1 RES1    0.0000
     23 C17        4.3901    1.8395   15.9167 C.ar      1 RES1    0.0000
     24 H1         8.1398    3.8679   18.0474 H         1 RES1    0.0000
     25 H2         8.4428    2.5524   18.0033 H         1 RES1    0.0000
     26 H3         6.9095    1.2593   13.9798 H         1 RES1    0.0000
     27 H4         7.8527    3.2495   13.5686 H         1 RES1    0.0000
     28 H5         6.4237    3.3507   12.9078 H         1 RES1    0.0000
     29 H6         6.1927    6.4765   14.5525 H         1 RES1    0.0000
     30 H7         4.7182    6.3866   13.2749 H         1 RES1    0.0000
     31 H8         4.5305    4.8124   12.9959 H         1 RES1    0.0000
     32 H9         6.7227    5.3184   12.0267 H         1 RES1    0.0000
     33 H10        6.4484    6.8701   12.3204 H         1 RES1    0.0000
     34 H11        2.2676    1.7766   12.9665 H         1 RES1    0.0000
     35 H12        1.2984    1.7428   14.9930 H         1 RES1    0.0000
     36 H13        2.7489    1.7766   16.8286 H         1 RES1    0.0000
     37 H14        4.9201    1.9115   16.6377 H         1 RES1    0.0000
@<TRIPOS>BOND
     1    1    6 2
     2    2    6 2
     3    3   16 3
     4    4    9 1
     5    5   17 3
     6    6   19 1
     7    7    8 2
     8    8    9 1
     9    9   10 2
    10   10   11 1
    11   11   12 1
    12   12    7 1
    13   13    7 1
    14   14   13 1
    15   15   13 1
    16   16    8 1
    17   17   10 1
    18   18   11 1
    19   19   18 ar
    20   20   19 ar
    21   21   20 ar
    22   22   21 ar
    23   23   18 ar
    24   24    4 1
    25   25    4 1
    26   26   11 1
    27   27   12 1
    28   28   12 1
    29   29   13 1
    30   30   14 1
    31   31   14 1
    32   32   15 1
    33   33   15 1
    34   34   20 1
    35   35   21 1
    36   36   22 1
    37   37   23 1
    38   14   15 1
    39   22   23 ar
@<TRIPOS>SUBSTRUCTURE
     1 RES1 1

@<TRIPOS>CRYSIN
   8.8770   11.2440   14.6900  90.0000  91.5510  90.0000  14 1

