# MOL2 file generated by ConQuest
# Please check atom types

@<TRIPOS>MOLECULE
YITBIM
    36    37     1
SMALL
NO_CHARGES
****
Generated from CSD

@<TRIPOS>ATOM
      1 O1         0.2890   -0.9246    2.0765 O.3       1 RES1    0.0000
      2 N1        -3.4901    2.1191    1.5724 N.3       1 RES1    0.0000
      3 N2        -3.8910    1.0385    2.4646 N.3       1 RES1    0.0000
      4 N3        -0.8672   -0.7095    2.8667 N.2       1 RES1    0.0000
      5 C1        -2.7344    0.6937    3.2918 C.3       1 RES1    0.0000
      6 C2        -1.5175    0.3036    2.4716 C.2       1 RES1    0.0000
      7 C3        -1.2048    1.2019    1.3233 C.3       1 RES1    0.0000
      8 C4        -2.4660    1.6858    0.6082 C.3       1 RES1    0.0000
      9 C5        -4.4468   -0.1444    1.8045 C.3       1 RES1    0.0000
     10 C6        -4.6698    2.6495    0.8802 C.3       1 RES1    0.0000
     11 C7        -5.7374    3.1439    1.8625 C.3       1 RES1    0.0000
     12 C8        -7.1291    2.9847    1.3123 C.ar      1 RES1    0.0000
     13 C9        -7.6090    3.7818    0.2681 C.ar      1 RES1    0.0000
     14 C10       -8.8796    3.5625   -0.2591 C.ar      1 RES1    0.0000
     15 C11       -9.6778    2.5873    0.2331 C.ar      1 RES1    0.0000
     16 C12       -9.2455    1.8039    1.2703 C.ar      1 RES1    0.0000
     17 C13       -7.9827    2.0032    1.7905 C.ar      1 RES1    0.0000
     18 H1         0.5976   -1.5814    2.3506 H         1 RES1    0.0000
     19 H2        -2.5322    1.4760    3.8310 H         1 RES1    0.0000
     20 H3        -2.9409   -0.0738    3.8610 H         1 RES1    0.0000
     21 H4        -0.5585    0.8118    0.7302 H         1 RES1    0.0000
     22 H5        -0.8086    1.9188    1.6404 H         1 RES1    0.0000
     23 H6        -2.8949    0.9278   -0.0800 H         1 RES1    0.0000
     24 H7        -2.3290    2.2457    0.0300 H         1 RES1    0.0000
     25 H8        -4.6365   -0.8118    2.4106 H         1 RES1    0.0000
     26 H9        -5.1810    0.1265    1.2203 H         1 RES1    0.0000
     27 H10       -3.8902   -0.5799    1.0903 H         1 RES1    0.0000
     28 H11       -4.4191    3.4159    0.3201 H         1 RES1    0.0000
     29 H12       -5.0462    2.0348    0.2701 H         1 RES1    0.0000
     30 H13       -5.5691    4.0801    2.0305 H         1 RES1    0.0000
     31 H14       -5.6980    2.5619    2.6807 H         1 RES1    0.0000
     32 H15       -7.0776    4.4491    0.0200 H         1 RES1    0.0000
     33 H16       -9.0539    4.0274   -0.9903 H         1 RES1    0.0000
     34 H17      -10.5636    2.4881   -0.1100 H         1 RES1    0.0000
     35 H18       -9.8221    1.0332    1.6404 H         1 RES1    0.0000
     36 H19       -7.6909    1.5182    2.5106 H         1 RES1    0.0000
@<TRIPOS>BOND
     1    1    4 1
     2    2    3 1
     3    3    5 1
     4    4    6 2
     5    5    6 1
     6    6    7 1
     7    7    8 1
     8    8    2 1
     9    9    3 1
    10   10    2 1
    11   11   10 1
    12   12   11 1
    13   13   12 ar
    14   14   13 ar
    15   15   14 ar
    16   16   15 ar
    17   17   12 ar
    18   18    1 1
    19   19    5 1
    20   20    5 1
    21   21    7 1
    22   22    7 1
    23   23    8 1
    24   24    8 1
    25   25    9 1
    26   26    9 1
    27   27    9 1
    28   28   10 1
    29   29   10 1
    30   30   11 1
    31   31   11 1
    32   32   13 1
    33   33   14 1
    34   34   15 1
    35   35   16 1
    36   36   17 1
    37   16   17 ar
@<TRIPOS>SUBSTRUCTURE
     1 RES1 1

@<TRIPOS>CRYSIN
  12.0020   10.5430   10.8480  90.0000 112.7700  90.0000  14 1

