# MOL2 file generated by ConQuest
# Please check atom types

@<TRIPOS>MOLECULE
YITJUG
    36    37     1
SMALL
NO_CHARGES
****
Generated from CSD

@<TRIPOS>ATOM
      1 O1         3.7011    2.9673    9.1365 O.2       1 RES1    0.0000
      2 O2         7.1159    0.9472    5.3316 O.2       1 RES1    0.0000
      3 O3         8.7010    0.9436    6.8924 O.3       1 RES1    0.0000
      4 O4        -1.0068    2.7735    3.1825 O.2       1 RES1    0.0000
      5 O5        -1.6284    3.4490    5.1048 O.2       1 RES1    0.0000
      6 N1         5.8450    2.2712    9.5462 N.am      1 RES1    0.0000
      7 N2        -0.7766    3.0334    4.3478 N.pl3     1 RES1    0.0000
      8 C1         6.9243    1.7645    8.8587 C.2       1 RES1    0.0000
      9 C2         6.5854    1.6463    7.5360 C.2       1 RES1    0.0000
     10 C3         5.2027    2.0869    7.3673 C.2       1 RES1    0.0000
     11 C4         4.7617    2.5069    8.7424 C.2       1 RES1    0.0000
     12 C5         4.5072    2.0766    6.2106 C.2       1 RES1    0.0000
     13 C6         3.1427    2.4166    5.8151 C.ar      1 RES1    0.0000
     14 C7         2.1668    2.9945    6.6146 C.ar      1 RES1    0.0000
     15 C8         0.8868    3.2104    6.1312 C.ar      1 RES1    0.0000
     16 C9         0.5876    2.8439    4.8355 C.ar      1 RES1    0.0000
     17 C10        1.5346    2.3130    4.0104 C.ar      1 RES1    0.0000
     18 C11        2.7977    2.1023    4.4967 C.ar      1 RES1    0.0000
     19 C12        8.1499    1.4488    9.6270 C.3       1 RES1    0.0000
     20 C13        7.4527    1.1551    6.4799 C.2       1 RES1    0.0000
     21 C14        9.6618    0.4545    5.9412 C.3       1 RES1    0.0000
     22 C15       10.9658    0.3165    6.6344 C.3       1 RES1    0.0000
     23 H1         5.8043    2.4452   10.4053 H         1 RES1    0.0000
     24 H2         4.9646    1.7917    5.5003 H         1 RES1    0.0000
     25 H3         2.3827    3.2970    7.4425 H         1 RES1    0.0000
     26 H4         0.2317    3.5540    6.6486 H         1 RES1    0.0000
     27 H5         1.2973    2.0487    3.1613 H         1 RES1    0.0000
     28 H6         3.4958    1.7329    3.9126 H         1 RES1    0.0000
     29 H7         8.7413    0.8298    9.1861 H         1 RES1    0.0000
     30 H8         7.9244    1.0794   10.5045 H         1 RES1    0.0000
     31 H9         8.5842    2.2543    9.7674 H         1 RES1    0.0000
     32 H10       11.6164    0.1175    6.0390 H         1 RES1    0.0000
     33 H11       11.3210    1.1749    6.9888 H         1 RES1    0.0000
     34 H12       10.9407   -0.3084    7.3291 H         1 RES1    0.0000
     35 H13        9.7240    1.2043    5.3444 H         1 RES1    0.0000
     36 H14        9.3041   -0.3084    5.5854 H         1 RES1    0.0000
@<TRIPOS>BOND
     1    1   11 2
     2    2   20 2
     3    3   20 1
     4    4    7 2
     5    5    7 2
     6    6    8 1
     7    7   16 1
     8    8    9 2
     9    9   10 1
    10   10   11 1
    11   11    6 1
    12   12   10 2
    13   13   12 1
    14   14   13 ar
    15   15   14 ar
    16   16   15 ar
    17   17   16 ar
    18   18   13 ar
    19   19    8 1
    20   20    9 1
    21   21    3 1
    22   22   21 1
    23   23    6 1
    24   24   12 1
    25   25   14 1
    26   26   15 1
    27   27   17 1
    28   28   18 1
    29   29   19 1
    30   30   19 1
    31   31   19 1
    32   32   22 1
    33   33   22 1
    34   34   22 1
    35   35   21 1
    36   36   21 1
    37   17   18 ar
@<TRIPOS>SUBSTRUCTURE
     1 RES1 1

@<TRIPOS>CRYSIN
  13.6870    7.3430   14.3400  90.0000  98.6700  90.0000  14 1

