# MOL2 file generated by ConQuest
# Please check atom types

@<TRIPOS>MOLECULE
YITJOC
    29    28     1
SMALL
NO_CHARGES
****
Generated from CSD

@<TRIPOS>ATOM
      1 O1         4.5775    3.3364    4.1300 O.2       1 RES1    0.0000
      2 O2         5.5111    1.2798    4.4022 O.3       1 RES1    0.0000
      3 O3         3.8567    2.2784    6.7596 O.2       1 RES1    0.0000
      4 O4         7.0602    2.4088    8.7539 O.2       1 RES1    0.0000
      5 O5         1.1272    0.0967    2.4787 O.2       1 RES1    0.0000
      6 O6         5.1032    0.3349    8.1299 O.2       1 RES1    0.0000
      7 N1         1.4621    2.1427    3.2623 N.3       1 RES1    0.0000
      8 O7         6.4560   -0.4343    6.6051 O.2       1 RES1    0.0000
      9 O8         0.0089    0.7708    4.2342 O.2       1 RES1    0.0000
     10 O9         8.3303    2.6367    7.0006 O.2       1 RES1    0.0000
     11 N2         0.8392    0.9428    3.3318 N.pl3     1 RES1    0.0000
     12 N3         3.7934    1.5200    2.9980 N.am      1 RES1    0.0000
     13 N4         7.2950    2.3553    7.5640 N.pl3     1 RES1    0.0000
     14 O10        5.2202    3.9143    7.2382 O.2       1 RES1    0.0000
     15 N5         4.9559    2.7641    6.9441 N.pl3     1 RES1    0.0000
     16 N6         5.8473    0.4529    7.1764 N.pl3     1 RES1    0.0000
     17 C1         6.5336    1.8817    5.1983 C.3       1 RES1    0.0000
     18 C2         6.1444    1.8650    6.6633 C.3       1 RES1    0.0000
     19 C3         4.6030    2.1574    3.8485 C.2       1 RES1    0.0000
     20 C4         1.2348    3.0793    4.3667 C.3       1 RES1    0.0000
     21 C5         2.6549    2.2034    2.4217 C.3       1 RES1    0.0000
     22 H1         7.3250    1.3754    5.1004 H         1 RES1    0.0000
     23 H2         2.4233    1.8564    1.5924 H         1 RES1    0.0000
     24 H3         2.8501    3.1345    2.3333 H         1 RES1    0.0000
     25 H4         6.6603    2.7790    4.9589 H         1 RES1    0.0000
     26 H5         0.2873    3.2842    4.4106 H         1 RES1    0.0000
     27 H6         1.5579    2.6760    5.1651 H         1 RES1    0.0000
     28 H7         1.7476    3.8831    4.1480 H         1 RES1    0.0000
     29 H8         3.8602    0.7673    2.9112 H         1 RES1    0.0000
@<TRIPOS>BOND
     1    1   19 2
     2    2   17 1
     3    3   15 2
     4    4   13 2
     5    5   11 2
     6    6   16 2
     7    7   11 1
     8    8   16 2
     9    9   11 2
    10   10   13 2
    11   12   19 1
    12   13   18 1
    13   14   15 2
    14   15   18 1
    15   16   18 1
    16   17   18 1
    17   19    2 1
    18   20    7 1
    19   21    7 1
    20   22   17 1
    21   23   21 1
    22   24   21 1
    23   25   17 1
    24   26   20 1
    25   27   20 1
    26   28   20 1
    27   29   12 1
    28   12   21 1
@<TRIPOS>SUBSTRUCTURE
     1 RES1 1

@<TRIPOS>CRYSIN
   9.3504    9.3568   13.5574  90.0000  96.4440  90.0000  14 1

