# MOL2 file generated by ConQuest
# Please check atom types

@<TRIPOS>MOLECULE
YIVFUF
    34    35     1
SMALL
NO_CHARGES
****
Generated from CSD

@<TRIPOS>ATOM
      1 O1         3.3110   -2.3675   10.2749 O.3       1 RES1    0.0000
      2 O2         5.0920   -0.5637   14.0092 O.3       1 RES1    0.0000
      3 O3         6.7357   -3.9945   11.3465 O.3       1 RES1    0.0000
      4 O4         3.9754   -2.4983   13.2576 O.3       1 RES1    0.0000
      5 O5         4.9778   -1.8843   17.8775 O.2       1 RES1    0.0000
      6 O6         3.1270   -1.9291   19.0010 O.2       1 RES1    0.0000
      7 N1         3.8509   -1.4586   18.1321 N.pl3     1 RES1    0.0000
      8 C1         3.9318   -0.0061   16.1031 C.ar      1 RES1    0.0000
      9 C2         4.4790   -1.9921   11.0137 C.3       1 RES1    0.0000
     10 C3         1.9000    1.5858   17.2824 C.ar      1 RES1    0.0000
     11 C4         6.1231   -3.3212   12.4544 C.3       1 RES1    0.0000
     12 C5         4.0244   -1.0766   13.2301 C.3       1 RES1    0.0000
     13 C6         3.4569    1.1559   15.4888 C.ar      1 RES1    0.0000
     14 C7         3.3634   -0.3070   17.3478 C.ar      1 RES1    0.0000
     15 C8         4.6748   -3.0257   12.1173 C.3       1 RES1    0.0000
     16 C9         2.4709    1.9424   16.0652 C.ar      1 RES1    0.0000
     17 C10        4.2955   -0.6733   11.7790 C.3       1 RES1    0.0000
     18 C11        4.9773   -0.8610   15.4075 C.3       1 RES1    0.0000
     19 C12        2.3543    0.4487   17.9292 C.ar      1 RES1    0.0000
     20 H1         7.3524   -3.4392   10.9878 H         1 RES1    0.0000
     21 H2         3.2547   -1.8952    9.6265 H         1 RES1    0.0000
     22 H3         1.1960    2.1035   17.6544 H         1 RES1    0.0000
     23 H4         3.8278    1.4187   14.6556 H         1 RES1    0.0000
     24 H5         2.1856    2.7350   15.6261 H         1 RES1    0.0000
     25 H6         1.9867    0.1932   18.7668 H         1 RES1    0.0000
     26 H7         6.1742   -3.8564   13.2379 H         1 RES1    0.0000
     27 H8         6.5775   -2.5001   12.6020 H         1 RES1    0.0000
     28 H9         5.0818   -0.1429   11.7249 H         1 RES1    0.0000
     29 H10        3.5606   -0.1871   11.4235 H         1 RES1    0.0000
     30 H11        4.7389   -1.7753   15.5074 H         1 RES1    0.0000
     31 H12        5.8183   -0.7060   15.8225 H         1 RES1    0.0000
     32 H13        5.2425   -1.9509   10.4511 H         1 RES1    0.0000
     33 H14        3.1956   -0.7163   13.5238 H         1 RES1    0.0000
     34 H15        4.2576   -3.8364   11.8494 H         1 RES1    0.0000
@<TRIPOS>BOND
     1    1    9 1
     2    2   12 1
     3    3   11 1
     4    4   12 1
     5    5    7 2
     6    6    7 2
     7    7   14 1
     8    8   13 ar
     9    9   15 1
    10   10   16 ar
    11   11   15 1
    12   12   17 1
    13   13   16 ar
    14   14    8 ar
    15   15    4 1
    16   16   24 1
    17   17    9 1
    18   18    2 1
    19   19   10 ar
    20   20    3 1
    21   21    1 1
    22   22   10 1
    23   23   13 1
    24   25   19 1
    25   26   11 1
    26   27   11 1
    27   28   17 1
    28   29   17 1
    29   30   18 1
    30   31   18 1
    31   32    9 1
    32   33   12 1
    33   34   15 1
    34    8   18 1
    35   14   19 ar
@<TRIPOS>SUBSTRUCTURE
     1 RES1 1

@<TRIPOS>CRYSIN
   5.2140    6.0550   19.4800  90.0000  93.3100  90.0000   4 1

