# MOL2 file generated by ConQuest
# Please check atom types

@<TRIPOS>MOLECULE
YIVNEW
    16    17     1
SMALL
NO_CHARGES
****
Generated from CSD

@<TRIPOS>ATOM
      1 O1         1.5164    4.5809    6.1164 O.3       1 RES1    0.0000
      2 O2        -0.4472    7.5173    6.2946 O.3       1 RES1    0.0000
      3 O3         3.3972    6.7145    6.2035 O.3       1 RES1    0.0000
      4 O4         4.6321    1.8813   10.7255 O.2       1 RES1    0.0000
      5 O5         4.9732    3.9412   10.1187 O.2       1 RES1    0.0000
      6 N1         1.4051    3.5281    8.1842 N.pl3     1 RES1    0.0000
      7 N2         4.2909    2.9118   10.1446 N.pl3     1 RES1    0.0000
      8 C1         1.2289    5.8917    5.6457 C.3       1 RES1    0.0000
      9 C2         0.5353    6.6252    6.8007 C.3       1 RES1    0.0000
     10 C3        -0.0643    5.5009    7.6278 C.3       1 RES1    0.0000
     11 C4         0.6188    4.2236    7.1612 C.3       1 RES1    0.0000
     12 C5         2.5982    3.9322    8.6658 C.2       1 RES1    0.0000
     13 C6         3.0183    2.9140    9.5025 C.2       1 RES1    0.0000
     14 C7         2.0663    1.8813    9.5079 C.2       1 RES1    0.0000
     15 C8         1.0871    2.2810    8.6821 C.2       1 RES1    0.0000
     16 C9         2.4764    6.5158    5.1179 C.3       1 RES1    0.0000
@<TRIPOS>BOND
     1    1    8 1
     2    2    9 1
     3    3   16 1
     4    4    7 2
     5    5    7 2
     6    6   11 1
     7    7   13 1
     8    8    9 1
     9    9   10 1
    10   10   11 1
    11   11    1 1
    12   12    6 1
    13   13   12 2
    14   14   13 1
    15   15    6 1
    16   16    8 1
    17   14   15 2
@<TRIPOS>SUBSTRUCTURE
     1 RES1 1

@<TRIPOS>CRYSIN
   6.6248   11.1648   13.6041  90.0000  90.0000  90.0000  19 1

