# MOL2 file generated by ConQuest
# Please check atom types

@<TRIPOS>MOLECULE
YIXLEW
    76    77     1
SMALL
NO_CHARGES
****
Generated from CSD

@<TRIPOS>ATOM
      1 O1        25.1550    0.1166    3.6760 O.3       1 RES1    0.0000
      2 O2        28.4777    1.0122    2.4678 O.3       1 RES1    0.0000
      3 O3        30.3194    0.2219    3.5522 O.2       1 RES1    0.0000
      4 O4        29.1756    3.9270   -1.3705 O.2       1 RES1    0.0000
      5 O5        31.0874    4.7675   -1.7546 O.2       1 RES1    0.0000
      6 O6        34.5467    4.4178    1.5721 O.2       1 RES1    0.0000
      7 O7        34.0892    3.4895    3.4431 O.2       1 RES1    0.0000
      8 N1        30.3388    4.0957   -1.0955 N.pl3     1 RES1    0.0000
      9 N2        33.8122    3.7624    2.2881 N.pl3     1 RES1    0.0000
     10 C1        24.6284    1.1860    2.9536 C.2       1 RES1    0.0000
     11 C2        25.7012    1.9620    2.8995 C.2       1 RES1    0.0000
     12 C3        26.4357    0.8782    3.7420 C.3       1 RES1    0.0000
     13 C4        27.5847    0.0378    3.1012 C.3       1 RES1    0.0000
     14 C5        23.1523    1.0725    2.5860 C.3       1 RES1    0.0000
     15 C6        22.3202    1.8495    3.6200 C.3       1 RES1    0.0000
     16 C7        22.8606    1.5868    1.1935 C.3       1 RES1    0.0000
     17 C8        22.7317   -0.3957    2.6282 C.3       1 RES1    0.0000
     18 C9        26.0141    3.3351    2.3000 C.3       1 RES1    0.0000
     19 C10       26.1984    3.2195    0.7957 C.3       1 RES1    0.0000
     20 C11       27.2792    3.9577    2.8986 C.3       1 RES1    0.0000
     21 C12       24.8596    4.3074    2.5998 C.3       1 RES1    0.0000
     22 C13       26.6804    1.1246    5.2674 C.3       1 RES1    0.0000
     23 C14       25.6027    2.0652    5.8366 C.3       1 RES1    0.0000
     24 C15       26.5730   -0.2382    6.0007 C.3       1 RES1    0.0000
     25 C16       28.0622    1.7268    5.5387 C.3       1 RES1    0.0000
     26 C17       27.2884   -1.0837    2.0708 C.3       1 RES1    0.0000
     27 C18       26.5545   -2.2483    2.7327 C.3       1 RES1    0.0000
     28 C19       28.6426   -1.6399    1.5896 C.3       1 RES1    0.0000
     29 C20       26.5054   -0.5971    0.8516 C.3       1 RES1    0.0000
     30 C21       29.7873    0.9631    2.7593 C.2       1 RES1    0.0000
     31 C22       30.5617    1.9835    1.9672 C.ar      1 RES1    0.0000
     32 C23       31.8123    2.3679    2.4558 C.ar      1 RES1    0.0000
     33 C24       32.5250    3.3136    1.7509 C.ar      1 RES1    0.0000
     34 C25       32.0868    3.8790    0.5931 C.ar      1 RES1    0.0000
     35 C26       30.8503    3.4721    0.1412 C.ar      1 RES1    0.0000
     36 C27       30.0771    2.5356    0.7939 C.ar      1 RES1    0.0000
     37 H1        27.9425   -0.4908    3.8501 H         1 RES1    0.0000
     38 H2        32.1799    1.9732    3.2818 H         1 RES1    0.0000
     39 H3        32.6098    4.5395    0.1008 H         1 RES1    0.0000
     40 H4        29.2014    2.2697    0.4400 H         1 RES1    0.0000
     41 H5        21.3714    1.7790    3.3918 H         1 RES1    0.0000
     42 H6        22.4768    1.4723    4.5102 H         1 RES1    0.0000
     43 H7        22.5996    2.7912    3.6210 H         1 RES1    0.0000
     44 H8        21.8934    1.4927    1.0084 H         1 RES1    0.0000
     45 H9        23.1216    2.5356    1.1367 H         1 RES1    0.0000
     46 H10       23.3673    1.0735    0.5409 H         1 RES1    0.0000
     47 H11       21.7706   -0.4703    2.3926 H         1 RES1    0.0000
     48 H12       23.2751   -0.9099    1.9892 H         1 RES1    0.0000
     49 H13       22.8760   -0.7464    3.5293 H         1 RES1    0.0000
     50 H14       26.4072    4.0998    0.4217 H         1 RES1    0.0000
     51 H15       26.9292    2.6071    0.6050 H         1 RES1    0.0000
     52 H16       25.3939    2.8729    0.3942 H         1 RES1    0.0000
     53 H17       27.4512    4.8360    2.4843 H         1 RES1    0.0000
     54 H18       27.1748    4.0692    3.8685 H         1 RES1    0.0000
     55 H19       28.0346    3.3739    2.7226 H         1 RES1    0.0000
     56 H20       25.0561    5.1836    2.2092 H         1 RES1    0.0000
     57 H21       24.0428    3.9567    2.2092 H         1 RES1    0.0000
     58 H22       24.7490    4.3963    3.5660 H         1 RES1    0.0000
     59 H23       25.7623    2.2084    6.7927 H         1 RES1    0.0000
     60 H24       25.6395    2.9241    5.3627 H         1 RES1    0.0000
     61 H25       24.7183    1.6563    5.7202 H         1 RES1    0.0000
     62 H26       26.7142   -0.1022    6.9578 H         1 RES1    0.0000
     63 H27       25.6702   -0.6134    5.8577 H         1 RES1    0.0000
     64 H28       27.2362   -0.8588    5.6469 H         1 RES1    0.0000
     65 H29       28.1881    1.8608    6.4994 H         1 RES1    0.0000
     66 H30       28.7715    1.1144    5.2160 H         1 RES1    0.0000
     67 H31       28.1574    2.5867    5.0785 H         1 RES1    0.0000
     68 H32       26.3765   -2.9445    2.0626 H         1 RES1    0.0000
     69 H33       27.1134   -2.6173    3.4468 H         1 RES1    0.0000
     70 H34       25.7009   -1.9323    3.1076 H         1 RES1    0.0000
     71 H35       28.4952   -2.3515    0.9350 H         1 RES1    0.0000
     72 H36       29.1707   -0.9202    1.1734 H         1 RES1    0.0000
     73 H37       29.1400   -2.0039    2.3559 H         1 RES1    0.0000
     74 H38       26.3457   -1.3496    0.2383 H         1 RES1    0.0000
     75 H39       25.6395   -0.2249    1.1367 H         1 RES1    0.0000
     76 H40       27.0213    0.1022    0.3942 H         1 RES1    0.0000
@<TRIPOS>BOND
     1    1   10 1
     2    2   13 1
     3    3   30 2
     4    4    8 2
     5    5    8 2
     6    6    9 2
     7    7    9 2
     8    8   35 1
     9    9   33 1
    10   10   11 2
    11   11   12 1
    12   12    1 1
    13   13   12 1
    14   14   10 1
    15   15   14 1
    16   16   14 1
    17   17   14 1
    18   18   11 1
    19   19   18 1
    20   20   18 1
    21   21   18 1
    22   22   12 1
    23   23   22 1
    24   24   22 1
    25   25   22 1
    26   26   13 1
    27   27   26 1
    28   28   26 1
    29   29   26 1
    30   30    2 1
    31   31   30 1
    32   32   31 ar
    33   33   32 ar
    34   34   33 ar
    35   35   34 ar
    36   36   31 ar
    37   37   13 1
    38   38   32 1
    39   39   34 1
    40   40   36 1
    41   41   15 1
    42   42   15 1
    43   43   15 1
    44   44   16 1
    45   45   16 1
    46   46   16 1
    47   47   17 1
    48   48   17 1
    49   49   17 1
    50   50   19 1
    51   51   19 1
    52   52   19 1
    53   53   20 1
    54   54   20 1
    55   55   20 1
    56   56   21 1
    57   57   21 1
    58   58   21 1
    59   59   23 1
    60   60   23 1
    61   61   23 1
    62   62   24 1
    63   63   24 1
    64   64   24 1
    65   65   25 1
    66   66   25 1
    67   67   25 1
    68   68   27 1
    69   69   27 1
    70   70   27 1
    71   71   28 1
    72   72   28 1
    73   73   28 1
    74   74   29 1
    75   75   29 1
    76   76   29 1
    77   35   36 ar
@<TRIPOS>SUBSTRUCTURE
     1 RES1 1

@<TRIPOS>CRYSIN
  30.7060   10.2240    9.1670  90.0000  90.0000  90.0000  33 1

