# MOL2 file generated by ConQuest
# Please check atom types

@<TRIPOS>MOLECULE
YIXPIF
    87    90     1
SMALL
USER_CHARGES
****
Generated from CSD

@<TRIPOS>ATOM
      1 H1         2.1902   -4.4597   23.4373 H         1 RES1    0.0000
      2 O1         2.8598   -6.3373   24.2553 O.2       1 RES1   -1.0000
      3 O2         3.6526    0.8889   19.2074 O.2       1 RES1    0.0000
      4 O3         1.6505    1.3379   20.1505 O.3       1 RES1    0.0000
      5 O4         1.2686    6.4466   18.0579 O.3       1 RES1    0.0000
      6 O5        -0.4838    6.9198   19.3870 O.2       1 RES1    0.0000
      7 O6         0.4789   12.5352   16.6269 O.3       1 RES1    0.0000
      8 N1         3.6693   -6.2274   23.2774 N.pl3     1 RES1    1.0000
      9 N2         3.6877   -5.2137   22.4721 N.2       1 RES1    0.0000
     10 N3         2.7478   -4.3274   22.7707 N.pl3     1 RES1    0.0000
     11 C1         4.3852   -8.5183   23.4510 C.ar      1 RES1    0.0000
     12 H2         3.5869   -8.7090   23.9290 H         1 RES1    0.0000
     13 C2         5.3093   -9.5128   23.1720 C.ar      1 RES1    0.0000
     14 H3         5.1376  -10.4047   23.4471 H         1 RES1    0.0000
     15 C3         6.4857   -9.2133   22.4950 C.ar      1 RES1    0.0000
     16 H4         7.1264   -9.8952   22.3300 H         1 RES1    0.0000
     17 C4         6.7228   -7.9218   22.0593 C.ar      1 RES1    0.0000
     18 H5         7.5163   -7.7251   21.5755 H         1 RES1    0.0000
     19 C5         5.8244   -6.9284   22.3214 C.ar      1 RES1    0.0000
     20 H6         5.9931   -6.0377   22.0355 H         1 RES1    0.0000
     21 C6         4.6671   -7.2357   23.0068 C.ar      1 RES1    0.0000
     22 C7         2.7663   -3.1178   22.0717 C.ar      1 RES1    0.0000
     23 C8         3.8059   -2.7636   21.2362 C.ar      1 RES1    0.0000
     24 H7         4.5454   -3.3497   21.1204 H         1 RES1    0.0000
     25 C9         3.7677   -1.5710   20.5774 C.ar      1 RES1    0.0000
     26 H8         4.4837   -1.3424   19.9960 H         1 RES1    0.0000
     27 C10        2.7162   -0.6841   20.7293 C.ar      1 RES1    0.0000
     28 C11        1.6597   -1.0503   21.5597 C.ar      1 RES1    0.0000
     29 H9         0.9144   -0.4699   21.6631 H         1 RES1    0.0000
     30 C12        1.6947   -2.2444   22.2253 C.ar      1 RES1    0.0000
     31 H10        0.9771   -2.4804   22.8021 H         1 RES1    0.0000
     32 C13        2.7680    0.5696   19.9424 C.2       1 RES1    0.0000
     33 C14        1.6233    2.6204   19.5627 C.ar      1 RES1    0.0000
     34 C15        2.6121    3.5389   19.8115 C.ar      1 RES1    0.0000
     35 H11        3.3808    3.2985   20.3148 H         1 RES1    0.0000
     36 C16        2.4688    4.8232   19.3152 C.ar      1 RES1    0.0000
     37 H12        3.1424    5.4749   19.4703 H         1 RES1    0.0000
     38 C17        1.3374    5.1478   18.5939 C.ar      1 RES1    0.0000
     39 C18        0.3478    4.2304   18.3619 C.ar      1 RES1    0.0000
     40 H13       -0.4294    4.4748   17.8737 H         1 RES1    0.0000
     41 C19        0.4964    2.9283   18.8523 C.ar      1 RES1    0.0000
     42 H14       -0.1718    2.2713   18.6939 H         1 RES1    0.0000
     43 C20        0.2949    7.2700   18.5476 C.2       1 RES1    0.0000
     44 C21        0.4071    8.6278   17.9601 C.ar      1 RES1    0.0000
     45 C22        1.4574    9.0454   17.1793 C.ar      1 RES1    0.0000
     46 H15        2.1469    8.4294   16.9586 H         1 RES1    0.0000
     47 C23        1.5314   10.3502   16.7040 C.ar      1 RES1    0.0000
     48 H16        2.2682   10.6266   16.1725 H         1 RES1    0.0000
     49 C24        0.5201   11.2372   17.0156 C.ar      1 RES1    0.0000
     50 C25       -0.5715   10.8095   17.7656 C.ar      1 RES1    0.0000
     51 H17       -1.2763   11.4148   17.9638 H         1 RES1    0.0000
     52 C26       -0.6325    9.5238   18.2188 C.ar      1 RES1    0.0000
     53 H18       -1.3896    9.2345   18.7158 H         1 RES1    0.0000
     54 C27        1.6348   13.1161   16.0094 C.3       1 RES1    0.0000
     55 H19        1.7702   12.7337   15.1065 H         1 RES1    0.0000
     56 H20        2.4420   12.9353   16.5522 H         1 RES1    0.0000
     57 C28        1.3923   14.5781   15.9186 C.3       1 RES1    0.0000
     58 H21        1.2766   14.9338   16.8345 H         1 RES1    0.0000
     59 H22        0.5415   14.7246   15.4351 H         1 RES1    0.0000
     60 C29        2.4804   15.3817   15.2282 C.3       1 RES1    0.0000
     61 H23        2.5367   15.1115   14.2766 H         1 RES1    0.0000
     62 H24        3.3534   15.1891   15.6541 H         1 RES1    0.0000
     63 C30        2.1907   16.8710   15.3153 C.3       1 RES1    0.0000
     64 H25        2.1709   17.1257   16.2723 H         1 RES1    0.0000
     65 H26        1.2852   17.0317   14.9483 H         1 RES1    0.0000
     66 C31        3.1612   17.7959   14.6003 C.3       1 RES1    0.0000
     67 H27        4.0673   17.6755   14.9799 H         1 RES1    0.0000
     68 H28        3.1988   17.5500   13.6414 H         1 RES1    0.0000
     69 C32        2.7609   19.2464   14.7232 C.3       1 RES1    0.0000
     70 H29        2.7957   19.4949   15.6809 H         1 RES1    0.0000
     71 H30        1.8193   19.3326   14.4299 H         1 RES1    0.0000
     72 C33        3.5964   20.2493   13.9405 C.3       1 RES1    0.0000
     73 H31        4.5278   20.2202   14.2741 H         1 RES1    0.0000
     74 H32        3.6083   19.9820   12.9867 H         1 RES1    0.0000
     75 C34        3.0801   21.6687   14.0466 C.3       1 RES1    0.0000
     76 H33        3.0650   21.9286   15.0018 H         1 RES1    0.0000
     77 H34        2.1469   21.6910   13.7168 H         1 RES1    0.0000
     78 C35        3.8944   22.7017   13.2741 C.3       1 RES1    0.0000
     79 H35        4.8211   22.7043   13.6219 H         1 RES1    0.0000
     80 H36        3.9318   22.4328   12.3222 H         1 RES1    0.0000
     81 C36        3.3351   24.1008   13.3639 C.3       1 RES1    0.0000
     82 H37        3.3164   24.3745   14.3155 H         1 RES1    0.0000
     83 H38        2.4009   24.0917   13.0353 H         1 RES1    0.0000
     84 C37        4.1236   25.1395   12.5705 C.3       1 RES1    0.0000
     85 H39        4.1956   24.8501   11.6359 H         1 RES1    0.0000
     86 H40        5.0210   25.2315   12.9526 H         1 RES1    0.0000
     87 H41        3.6612   26.0018   12.6094 H         1 RES1    0.0000
@<TRIPOS>BOND
     1    1   10 1
     2    2    8 1
     3    3   32 2
     4    4   32 1
     5    5   38 1
     6    6   43 2
     7    7   49 1
     8    8    9 2
     9    9   10 1
    10   10   22 1
    11   11   12 1
    12   13   11 ar
    13   14   13 1
    14   15   13 ar
    15   16   15 1
    16   17   15 ar
    17   18   17 1
    18   19   17 ar
    19   20   19 1
    20   21    8 1
    21   22   23 ar
    22   23   24 1
    23   25   23 ar
    24   26   25 1
    25   27   25 ar
    26   28   27 ar
    27   29   28 1
    28   30   22 ar
    29   31   30 1
    30   32   27 1
    31   33    4 1
    32   34   33 ar
    33   35   34 1
    34   36   34 ar
    35   37   36 1
    36   38   36 ar
    37   39   38 ar
    38   40   39 1
    39   41   33 ar
    40   42   41 1
    41   43    5 1
    42   44   43 1
    43   45   44 ar
    44   46   45 1
    45   47   45 ar
    46   48   47 1
    47   49   47 ar
    48   50   49 ar
    49   51   50 1
    50   52   44 ar
    51   53   52 1
    52   54    7 1
    53   55   54 1
    54   56   54 1
    55   57   54 1
    56   58   57 1
    57   59   57 1
    58   60   57 1
    59   61   60 1
    60   62   60 1
    61   63   60 1
    62   64   63 1
    63   65   63 1
    64   66   63 1
    65   67   66 1
    66   68   66 1
    67   69   66 1
    68   70   69 1
    69   71   69 1
    70   72   69 1
    71   73   72 1
    72   74   72 1
    73   75   72 1
    74   76   75 1
    75   77   75 1
    76   78   75 1
    77   79   78 1
    78   80   78 1
    79   81   78 1
    80   82   81 1
    81   83   81 1
    82   84   81 1
    83   85   84 1
    84   86   84 1
    85   87   84 1
    86   11   21 ar
    87   19   21 ar
    88   28   30 ar
    89   39   41 ar
    90   50   52 ar
@<TRIPOS>SUBSTRUCTURE
     1 RES1 1

@<TRIPOS>CRYSIN
   5.6740   12.0390   24.9310 101.7790  92.8260  96.5650   2 1

