# MOL2 file generated by ConQuest
# Please check atom types

@<TRIPOS>MOLECULE
YIXQAY
    34    35     1
SMALL
NO_CHARGES
****
Generated from CSD

@<TRIPOS>ATOM
      1 O1         7.8918    7.5005    2.8576 O.2       1 RES1    0.0000
      2 O2         6.6083    9.2415    2.9375 O.2       1 RES1    0.0000
      3 O3         5.5317   11.5791   -1.0450 O.2       1 RES1    0.0000
      4 O4         6.9023   11.5597   -2.7138 O.2       1 RES1    0.0000
      5 O5        12.7221    6.6787   -1.5215 O.3       1 RES1    0.0000
      6 O6        16.5396    2.7774    1.5009 O.2       1 RES1    0.0000
      7 O7        15.2567    3.3808    3.1329 O.2       1 RES1    0.0000
      8 N1         9.8419    7.5060    1.0667 N.3       1 RES1    0.0000
      9 N2        10.9935    7.0650    0.4707 N.2       1 RES1    0.0000
     10 N3         7.4344    8.5371    2.3610 N.pl3     1 RES1    0.0000
     11 N4         6.5449   11.1757   -1.6057 N.pl3     1 RES1    0.0000
     12 N5        15.6085    3.4394    1.9569 N.pl3     1 RES1    0.0000
     13 C1         7.8519    8.9105    1.0191 C.ar      1 RES1    0.0000
     14 C2         7.0510    9.8377    0.3676 C.ar      1 RES1    0.0000
     15 H1         6.3123   10.2086    0.7930 H         1 RES1    0.0000
     16 C3         7.3715   10.1967   -0.9207 C.ar      1 RES1    0.0000
     17 C4         8.4772    9.6390   -1.5812 C.ar      1 RES1    0.0000
     18 H2         8.6705    9.8826   -2.4569 H         1 RES1    0.0000
     19 C5         9.2692    8.7323   -0.9251 C.ar      1 RES1    0.0000
     20 H3         9.9994    8.3626   -1.3672 H         1 RES1    0.0000
     21 C6         9.0019    8.3451    0.4105 C.ar      1 RES1    0.0000
     22 C7        11.7891    6.3891    1.2319 C.2       1 RES1    0.0000
     23 H4        11.5846    6.2881    2.1333 H         1 RES1    0.0000
     24 C8        12.9967    5.7849    0.7001 C.ar      1 RES1    0.0000
     25 C9        13.4182    5.9399   -0.6396 C.ar      1 RES1    0.0000
     26 C10       14.5796    5.3009   -1.0943 C.ar      1 RES1    0.0000
     27 H5        14.8644    5.4331   -1.9696 H         1 RES1    0.0000
     28 C11       15.3042    4.4780   -0.2566 C.ar      1 RES1    0.0000
     29 H6        16.0658    4.0400   -0.5627 H         1 RES1    0.0000
     30 C12       14.8699    4.3186    1.0571 C.ar      1 RES1    0.0000
     31 C13       13.7522    4.9659    1.5414 C.ar      1 RES1    0.0000
     32 H7        13.5013    4.8566    2.4300 H         1 RES1    0.0000
     33 H8         9.7315    7.2971    1.9287 H         1 RES1    0.0000
     34 H9        11.9810    6.9941   -1.0487 H         1 RES1    0.0000
@<TRIPOS>BOND
     1    1   10 2
     2    2   10 2
     3    3   11 2
     4    4   11 2
     5    5   25 1
     6    6   12 2
     7    7   12 2
     8    8    9 1
     9    9   22 2
    10   10   13 1
    11   11   16 1
    12   12   30 1
    13   13   14 ar
    14   14   15 1
    15   16   14 ar
    16   17   16 ar
    17   18   17 1
    18   19   17 ar
    19   20   19 1
    20   21    8 1
    21   22   23 1
    22   24   22 1
    23   25   24 ar
    24   26   25 ar
    25   27   26 1
    26   28   26 ar
    27   29   28 1
    28   30   28 ar
    29   31   24 ar
    30   32   31 1
    31   33    8 1
    32   34    5 1
    33   13   21 ar
    34   19   21 ar
    35   30   31 ar
@<TRIPOS>SUBSTRUCTURE
     1 RES1 1

@<TRIPOS>CRYSIN
  12.7543    8.1898   13.8618  90.0000 112.6830  90.0000 231 1

