# MOL2 file generated by ConQuest
# Please check atom types

@<TRIPOS>MOLECULE
YIYDER01
    53    55     1
SMALL
NO_CHARGES
****
Generated from CSD

@<TRIPOS>ATOM
      1 O1         5.1450    7.5107    7.1503 O.3       1 RES1    0.0000
      2 O2         5.4394    6.5984   10.5939 O.3       1 RES1    0.0000
      3 O3         4.4928    5.4655    8.9329 O.2       1 RES1    0.0000
      4 N1         6.6543    7.2784    2.6471 N.3       1 RES1    0.0000
      5 N2         6.0827    6.5952    6.5879 N.2       1 RES1    0.0000
      6 C1         4.0402    8.3882    1.7057 C.ar      1 RES1    0.0000
      7 C2         3.1249    9.1210    0.9983 C.ar      1 RES1    0.0000
      8 C3         3.0301   10.4716    1.1785 C.ar      1 RES1    0.0000
      9 C4         3.8498   11.0845    2.0671 C.ar      1 RES1    0.0000
     10 C5         4.7688   10.3587    2.8041 C.ar      1 RES1    0.0000
     11 C6         4.8757    8.9935    2.6267 C.ar      1 RES1    0.0000
     12 C7         5.8311    8.1815    3.4652 C.3       1 RES1    0.0000
     13 C8         5.0343    7.3935    4.5024 C.3       1 RES1    0.0000
     14 C9         5.9542    6.5640    5.3229 C.2       1 RES1    0.0000
     15 C10        6.8220    5.6521    4.5258 C.3       1 RES1    0.0000
     16 C11        7.5762    6.4795    3.4651 C.3       1 RES1    0.0000
     17 C12        8.4286    5.5812    2.5940 C.ar      1 RES1    0.0000
     18 C13        9.7973    5.6120    2.6645 C.ar      1 RES1    0.0000
     19 C14       10.5766    4.7484    1.9066 C.ar      1 RES1    0.0000
     20 C15        9.9804    3.8441    1.0817 C.ar      1 RES1    0.0000
     21 C16        8.6079    3.7877    0.9944 C.ar      1 RES1    0.0000
     22 C17        7.8365    4.6566    1.7449 C.ar      1 RES1    0.0000
     23 C18        7.4084    8.0784    1.6755 C.3       1 RES1    0.0000
     24 C19        7.7537    4.7962    5.3520 C.3       1 RES1    0.0000
     25 C20        5.4260    7.6441    8.5284 C.3       1 RES1    0.0000
     26 C21        5.0558    6.4322    9.3220 C.2       1 RES1    0.0000
     27 C22        5.1784    5.5275   11.5110 C.3       1 RES1    0.0000
     28 H1         4.1002    7.4707    1.5651 H         1 RES1    0.0000
     29 H2         2.5637    8.6962    0.3907 H         1 RES1    0.0000
     30 H3         2.4087   10.9666    0.6954 H         1 RES1    0.0000
     31 H4         3.7936   12.0056    2.1832 H         1 RES1    0.0000
     32 H5         5.3152   10.7911    3.4200 H         1 RES1    0.0000
     33 H6         6.4270    8.7988    3.9383 H         1 RES1    0.0000
     34 H7         4.5477    8.0066    5.0756 H         1 RES1    0.0000
     35 H8         4.3902    6.8223    4.0550 H         1 RES1    0.0000
     36 H9         6.2267    5.0418    4.0420 H         1 RES1    0.0000
     37 H10        8.1744    7.0976    3.9350 H         1 RES1    0.0000
     38 H11       10.2111    6.2225    3.2307 H         1 RES1    0.0000
     39 H12       11.5041    4.7878    1.9622 H         1 RES1    0.0000
     40 H13       10.5020    3.2631    0.5759 H         1 RES1    0.0000
     41 H14        8.2008    3.1679    0.4331 H         1 RES1    0.0000
     42 H15        6.9094    4.6209    1.6796 H         1 RES1    0.0000
     43 H16        7.9496    8.7205    2.1409 H         1 RES1    0.0000
     44 H17        6.7967    8.5366    1.0947 H         1 RES1    0.0000
     45 H18        7.9726    7.5017    1.1553 H         1 RES1    0.0000
     46 H19        8.4287    5.3509    5.7503 H         1 RES1    0.0000
     47 H20        8.1705    4.1405    4.7879 H         1 RES1    0.0000
     48 H21        7.2547    4.3538    6.0423 H         1 RES1    0.0000
     49 H22        4.9407    8.4088    8.8762 H         1 RES1    0.0000
     50 H23        6.3732    7.8179    8.6417 H         1 RES1    0.0000
     51 H24        4.4761    4.9729   11.1639 H         1 RES1    0.0000
     52 H25        4.9106    5.8902   12.3585 H         1 RES1    0.0000
     53 H26        5.9742    5.0028   11.6248 H         1 RES1    0.0000
@<TRIPOS>BOND
     1    1    5 1
     2    2   26 1
     3    3   26 2
     4    4   12 1
     5    5   14 2
     6    6    7 ar
     7    7    8 ar
     8    8    9 ar
     9    9   10 ar
    10   10   11 ar
    11   11    6 ar
    12   12   11 1
    13   13   12 1
    14   14   13 1
    15   15   14 1
    16   16    4 1
    17   17   16 1
    18   18   17 ar
    19   19   18 ar
    20   20   19 ar
    21   21   20 ar
    22   22   17 ar
    23   23    4 1
    24   24   15 1
    25   25    1 1
    26   26   25 1
    27   27    2 1
    28   28    6 1
    29   29    7 1
    30   30    8 1
    31   31    9 1
    32   32   10 1
    33   33   12 1
    34   34   13 1
    35   35   13 1
    36   36   15 1
    37   37   16 1
    38   38   18 1
    39   39   19 1
    40   40   20 1
    41   41   21 1
    42   42   22 1
    43   43   23 1
    44   44   23 1
    45   45   23 1
    46   46   24 1
    47   47   24 1
    48   48   24 1
    49   49   25 1
    50   50   25 1
    51   51   27 1
    52   52   27 1
    53   53   27 1
    54   15   16 1
    55   21   22 ar
@<TRIPOS>SUBSTRUCTURE
     1 RES1 1

@<TRIPOS>CRYSIN
   8.1662   15.0229   16.2889  90.0000  93.9030  90.0000  14 1

