# MOL2 file generated by ConQuest
# Please check atom types

@<TRIPOS>MOLECULE
YIYNIF
    73    77     1
SMALL
NO_CHARGES
****
Generated from CSD

@<TRIPOS>ATOM
      1 C1         7.0224    4.6527    9.7711 C.ar      1 RES1    0.0000
      2 C2         6.3263    4.7641    8.5780 C.ar      1 RES1    0.0000
      3 H1         6.4613    5.4879    8.0089 H         1 RES1    0.0000
      4 C3         5.4260    3.7680    8.2585 C.ar      1 RES1    0.0000
      5 H2         4.9381    3.8238    7.4685 H         1 RES1    0.0000
      6 C4         5.2430    2.6992    9.0909 C.ar      1 RES1    0.0000
      7 H3         4.6330    2.0379    8.8564 H         1 RES1    0.0000
      8 C5         5.9531    2.5828   10.2854 C.ar      1 RES1    0.0000
      9 H4         5.8182    1.8519   10.8449 H         1 RES1    0.0000
     10 C6         6.8574    3.5629   10.6259 C.ar      1 RES1    0.0000
     11 C7         7.7492    3.7556   11.8267 C.3       1 RES1    0.0000
     12 H5         7.1794    3.8999   12.6112 H         1 RES1    0.0000
     13 C8         8.4505    5.0750   11.4977 C.2       1 RES1    0.0000
     14 C9         8.7862    2.6699   12.1798 C.3       1 RES1    0.0000
     15 H6         9.4509    3.0763   12.7744 H         1 RES1    0.0000
     16 C10        8.1556    1.5101   12.9220 C.2       1 RES1    0.0000
     17 C11        9.0144    0.5593   13.6912 C.ar      1 RES1    0.0000
     18 C12        8.4440   -0.6405   14.1077 C.ar      1 RES1    0.0000
     19 H7         7.5605   -0.8338   13.8921 H         1 RES1    0.0000
     20 C13        9.1860   -1.5437   14.8411 C.ar      1 RES1    0.0000
     21 H8         8.8014   -2.3457   15.1126 H         1 RES1    0.0000
     22 C14       10.4824   -1.2691   15.1675 C.ar      1 RES1    0.0000
     23 H9        10.9755   -1.8789   15.6667 H         1 RES1    0.0000
     24 C15       11.0580   -0.0913   14.7602 C.ar      1 RES1    0.0000
     25 H10       11.9408    0.0930   14.9837 H         1 RES1    0.0000
     26 C16       10.3329    0.8211   14.0198 C.ar      1 RES1    0.0000
     27 H11       10.7321    1.6134   13.7412 H         1 RES1    0.0000
     28 C17        9.5380    2.1066   10.9516 C.3       1 RES1    0.0000
     29 H12       10.1052    1.3749   11.2412 H         1 RES1    0.0000
     30 H13        8.8894    1.7453   10.3265 H         1 RES1    0.0000
     31 C18       10.3773    3.1143   10.2441 C.2       1 RES1    0.0000
     32 C19       10.3573    3.5481    8.9861 C.2       1 RES1    0.0000
     33 C20       11.4631    4.5397    8.8228 C.2       1 RES1    0.0000
     34 C21       11.5302    3.7634   10.9401 C.2       1 RES1    0.0000
     35 C22       13.2100    5.6518   10.3347 C.3       1 RES1    0.0000
     36 C23       13.4235    5.8093   11.7939 C.3       1 RES1    0.0000
     37 H14       12.5942    6.0477   12.2149 H         1 RES1    0.0000
     38 H15       14.0719    6.5010   11.9488 H         1 RES1    0.0000
     39 H16       13.7432    4.9823   12.1614 H         1 RES1    0.0000
     40 C24       12.8677    6.9943    9.7382 C.3       1 RES1    0.0000
     41 H17       12.7278    6.8984    8.7933 H         1 RES1    0.0000
     42 H18       13.5887    7.6087    9.8945 H         1 RES1    0.0000
     43 H19       12.0666    7.3314   10.1469 H         1 RES1    0.0000
     44 C25       14.4532    5.1125    9.6449 C.3       1 RES1    0.0000
     45 H20       14.7910    4.3599   10.1373 H         1 RES1    0.0000
     46 H21       15.1240    5.7991    9.6120 H         1 RES1    0.0000
     47 H22       14.2309    4.8385    8.7522 H         1 RES1    0.0000
     48 C26        9.4916    3.1571    7.8247 C.3       1 RES1    0.0000
     49 H23        9.3313    3.9337    7.2656 H         1 RES1    0.0000
     50 H24        8.6351    2.8429    8.1529 H         1 RES1    0.0000
     51 C27       10.1426    2.0710    6.9995 C.ar      1 RES1    0.0000
     52 C28        9.8783    0.7414    7.2445 C.ar      1 RES1    0.0000
     53 H25        9.2726    0.5141    7.9129 H         1 RES1    0.0000
     54 C29       10.4939   -0.2632    6.5204 C.ar      1 RES1    0.0000
     55 H26       10.3150   -1.1585    6.6965 H         1 RES1    0.0000
     56 C30       11.3750    0.0988    5.5374 C.ar      1 RES1    0.0000
     57 C31       11.6441    1.4008    5.2464 C.ar      1 RES1    0.0000
     58 H27       12.2325    1.6202    4.5612 H         1 RES1    0.0000
     59 C32       11.0317    2.3841    5.9828 C.ar      1 RES1    0.0000
     60 H28       11.2166    3.2759    5.7968 H         1 RES1    0.0000
     61 C33        8.4979    6.7039    9.6298 C.3       1 RES1    0.0000
     62 H29        9.1491    7.1284   10.1935 H         1 RES1    0.0000
     63 H30        7.7864    7.3212    9.4433 H         1 RES1    0.0000
     64 H31        8.9127    6.4367    8.8056 H         1 RES1    0.0000
     65 N1         7.9614    5.5334   10.3039 N.am      1 RES1    0.0000
     66 N2        12.0831    4.6992   10.0631 N.am      1 RES1    0.0000
     67 N3        12.0655   -0.9680    4.7793 N.pl3     1 RES1    0.0000
     68 O1         9.3148    5.6188   12.1654 O.2       1 RES1    0.0000
     69 O2         6.9581    1.3366   12.8736 O.2       1 RES1    0.0000
     70 O3        11.9256    3.4793   12.0453 O.2       1 RES1    0.0000
     71 O4        11.7597    5.0907    7.7885 O.2       1 RES1    0.0000
     72 O5        11.7848   -2.1182    5.0179 O.2       1 RES1    0.0000
     73 O6        12.8983   -0.6335    3.9522 O.2       1 RES1    0.0000
@<TRIPOS>BOND
     1    1    2 ar
     2    2    3 1
     3    4    2 ar
     4    5    4 1
     5    6    4 ar
     6    7    6 1
     7    8    6 ar
     8    9    8 1
     9   10    1 ar
    10   11   10 1
    11   12   11 1
    12   13   11 1
    13   14   11 1
    14   15   14 1
    15   16   14 1
    16   17   16 1
    17   18   17 ar
    18   19   18 1
    19   20   18 ar
    20   21   20 1
    21   22   20 ar
    22   23   22 1
    23   24   22 ar
    24   25   24 1
    25   26   17 ar
    26   27   26 1
    27   28   14 1
    28   29   28 1
    29   30   28 1
    30   31   28 1
    31   32   31 2
    32   33   32 1
    33   34   31 1
    34   35   36 1
    35   36   37 1
    36   38   36 1
    37   39   36 1
    38   40   35 1
    39   41   40 1
    40   42   40 1
    41   43   40 1
    42   44   35 1
    43   45   44 1
    44   46   44 1
    45   47   44 1
    46   48   32 1
    47   49   48 1
    48   50   48 1
    49   51   48 1
    50   52   51 ar
    51   53   52 1
    52   54   52 ar
    53   55   54 1
    54   56   54 ar
    55   57   56 ar
    56   58   57 1
    57   59   51 ar
    58   60   59 1
    59   61   62 1
    60   63   61 1
    61   64   61 1
    62   65    1 1
    63   66   33 1
    64   67   56 1
    65   68   13 2
    66   69   16 2
    67   70   34 2
    68   71   33 2
    69   72   67 2
    70   73   67 2
    71    8   10 ar
    72   13   65 1
    73   24   26 ar
    74   34   66 1
    75   35   66 1
    76   57   59 ar
    77   61   65 1
@<TRIPOS>SUBSTRUCTURE
     1 RES1 1

@<TRIPOS>CRYSIN
  12.7420   16.9120   13.7160  90.0000  91.0220  90.0000 231 1

