# MOL2 file generated by ConQuest
# Please check atom types

@<TRIPOS>MOLECULE
YIZDAM
    37    39     1
SMALL
NO_CHARGES
****
Generated from CSD

@<TRIPOS>ATOM
      1 O1         0.7312    1.3085   11.0361 O.3       1 RES1    0.0000
      2 O2        -1.0270    0.4438   10.0254 O.3       1 RES1    0.0000
      3 O3        -0.6288    2.8509    6.9429 O.2       1 RES1    0.0000
      4 O4        -2.0728    2.6581    8.5345 O.2       1 RES1    0.0000
      5 O5         1.9934    3.6597    9.2163 O.2       1 RES1    0.0000
      6 O6         0.0464    4.3134    9.8849 O.2       1 RES1    0.0000
      7 O7         3.0968   -1.4477    9.0183 O.2       1 RES1    0.0000
      8 O8         3.5793    0.0883    7.5862 O.2       1 RES1    0.0000
      9 N1        -0.3921    1.6660   10.2534 N.3       1 RES1    0.0000
     10 N2        -0.9569    2.5741    8.0784 N.pl3     1 RES1    0.0000
     11 N3         0.8076    3.5045    9.3868 N.pl3     1 RES1    0.0000
     12 N4         3.0069   -0.3168    8.5765 N.pl3     1 RES1    0.0000
     13 C1         1.2894    0.0999   10.4239 C.3       1 RES1    0.0000
     14 C2         0.0006   -0.6256    9.8633 C.3       1 RES1    0.0000
     15 C3         0.0820   -0.9143    8.3749 C.2       1 RES1    0.0000
     16 C4         0.5292    0.0536    7.5802 C.2       1 RES1    0.0000
     17 C5         1.1731    1.2625    8.2596 C.3       1 RES1    0.0000
     18 C6         2.1392    0.6781    9.3100 C.3       1 RES1    0.0000
     19 C7         2.0310   -0.5951   11.5414 C.3       1 RES1    0.0000
     20 C8        -0.4851   -1.7490   10.7264 C.3       1 RES1    0.0000
     21 C9        -0.3774   -2.2439    7.8995 C.3       1 RES1    0.0000
     22 C10        0.6102    0.0290    6.0870 C.3       1 RES1    0.0000
     23 C11        0.1870    2.1556    9.0003 C.3       1 RES1    0.0000
     24 H1         1.6735    1.7888    7.6007 H         1 RES1    0.0000
     25 H2         2.7008    1.3965    9.6701 H         1 RES1    0.0000
     26 H3         2.8532   -0.1306   11.7167 H         1 RES1    0.0000
     27 H4         2.2240   -1.4996   11.2821 H         1 RES1    0.0000
     28 H5         1.4891   -0.5967   12.3325 H         1 RES1    0.0000
     29 H6         0.1148   -2.4948   10.6496 H         1 RES1    0.0000
     30 H7        -1.3631   -2.0145   10.4419 H         1 RES1    0.0000
     31 H8        -0.5192   -1.4587   11.6398 H         1 RES1    0.0000
     32 H9        -1.2825   -2.3890    8.1828 H         1 RES1    0.0000
     33 H10        0.1870   -2.9272    8.2668 H         1 RES1    0.0000
     34 H11       -0.3341   -2.2734    6.9405 H         1 RES1    0.0000
     35 H12        1.5275    0.1048    5.8157 H         1 RES1    0.0000
     36 H13        0.1078    0.7641    5.7281 H         1 RES1    0.0000
     37 H14        0.2464   -0.7967    5.7605 H         1 RES1    0.0000
@<TRIPOS>BOND
     1    1    9 1
     2    2    9 1
     3    3   10 2
     4    4   10 2
     5    5   11 2
     6    6   11 2
     7    7   12 2
     8    8   12 2
     9    9   23 1
    10   10   23 1
    11   11   23 1
    12   12   18 1
    13   13    1 1
    14   14    2 1
    15   15   14 1
    16   16   15 2
    17   17   16 1
    18   18   13 1
    19   19   13 1
    20   20   14 1
    21   21   15 1
    22   22   16 1
    23   23   17 1
    24   24   17 1
    25   25   18 1
    26   26   19 1
    27   27   19 1
    28   28   19 1
    29   29   20 1
    30   30   20 1
    31   31   20 1
    32   32   21 1
    33   33   21 1
    34   34   21 1
    35   35   22 1
    36   36   22 1
    37   37   22 1
    38   13   14 1
    39   17   18 1
@<TRIPOS>SUBSTRUCTURE
     1 RES1 1

@<TRIPOS>CRYSIN
   6.6280    8.6370   12.6910  99.9700 103.1300 103.3700   2 1

