# MOL2 file generated by ConQuest
# Please check atom types

@<TRIPOS>MOLECULE
YIZHIZ
    46    49     1
SMALL
NO_CHARGES
****
Generated from CSD

@<TRIPOS>ATOM
      1 O1         7.5007    6.9498   11.0017 O.3       1 RES1    0.0000
      2 N1         8.4907    7.7104   11.7224 N.3       1 RES1    0.0000
      3 C1         8.9163    8.8602   10.9904 C.ar      1 RES1    0.0000
      4 C2         9.7965    9.7504   11.5920 C.ar      1 RES1    0.0000
      5 H1        10.0013    9.6584   12.4949 H         1 RES1    0.0000
      6 C3        10.3732   10.7758   10.8570 C.ar      1 RES1    0.0000
      7 H2        10.9683   11.3605   11.2675 H         1 RES1    0.0000
      8 C4        10.0697   10.9310    9.5315 C.ar      1 RES1    0.0000
      9 H3        10.4557   11.6236    9.0436 H         1 RES1    0.0000
     10 C5         9.1847   10.0520    8.9134 C.ar      1 RES1    0.0000
     11 H4         8.9754   10.1543    8.0129 H         1 RES1    0.0000
     12 C6         8.6160    9.0219    9.6500 C.ar      1 RES1    0.0000
     13 H5         8.0263    8.4333    9.2371 H         1 RES1    0.0000
     14 C7         7.9262    7.9053   13.0694 C.3       1 RES1    0.0000
     15 H6         8.0339    8.8406   13.3403 H         1 RES1    0.0000
     16 C8         8.6100    7.0004   14.0795 C.ar      1 RES1    0.0000
     17 C9         8.5060    7.2992   15.4292 C.ar      1 RES1    0.0000
     18 H7         8.0357    8.0522   15.7056 H         1 RES1    0.0000
     19 C10        9.1085    6.4676   16.3738 C.ar      1 RES1    0.0000
     20 H8         9.0529    6.6628   17.2809 H         1 RES1    0.0000
     21 C11        9.7805    5.3638   15.9412 C.ar      1 RES1    0.0000
     22 N2        10.3852    4.4526   16.9509 N.pl3     1 RES1    0.0000
     23 O2        10.8558    3.3996   16.5779 O.2       1 RES1    0.0000
     24 O3        10.3437    4.8116   18.1111 O.2       1 RES1    0.0000
     25 C12        9.8916    5.0295   14.6132 C.ar      1 RES1    0.0000
     26 H9        10.3494    4.2651   14.3466 H         1 RES1    0.0000
     27 C13        9.2980    5.8712   13.6852 C.ar      1 RES1    0.0000
     28 H10        9.3652    5.6713   12.7794 H         1 RES1    0.0000
     29 C14        6.4123    7.5750   12.9161 C.3       1 RES1    0.0000
     30 H11        6.2054    6.7192   13.3468 H         1 RES1    0.0000
     31 N3         5.5172    8.6646   13.4573 N.pl3     1 RES1    0.0000
     32 O4         4.5538    8.3177   14.1120 O.2       1 RES1    0.0000
     33 O5         5.7724    9.8214   13.1757 O.2       1 RES1    0.0000
     34 C15        6.2308    7.4683   11.4122 C.3       1 RES1    0.0000
     35 H12        6.1138    8.3663   11.0383 H         1 RES1    0.0000
     36 C16        5.1520    6.5713   10.8855 C.ar      1 RES1    0.0000
     37 C17        4.3435    7.0008    9.8698 C.ar      1 RES1    0.0000
     38 H13        4.4211    7.8715    9.5508 H         1 RES1    0.0000
     39 C18        3.4041    6.1381    9.3125 C.ar      1 RES1    0.0000
     40 H14        2.8626    6.4212    8.6112 H         1 RES1    0.0000
     41 C19        3.2857    4.8396    9.8191 C.ar      1 RES1    0.0000
     42 H15        2.6504    4.2631    9.4598 H         1 RES1    0.0000
     43 C20        4.1016    4.4019   10.8475 C.ar      1 RES1    0.0000
     44 H16        4.0267    3.5355   11.1765 H         1 RES1    0.0000
     45 C21        5.0295    5.2785   11.3745 C.ar      1 RES1    0.0000
     46 H17        5.5810    4.9983   12.0690 H         1 RES1    0.0000
@<TRIPOS>BOND
     1    1    2 1
     2    2    3 1
     3    3    4 ar
     4    4    5 1
     5    6    4 ar
     6    7    6 1
     7    8    6 ar
     8    9    8 1
     9   10    8 ar
    10   11   10 1
    11   12    3 ar
    12   13   12 1
    13   14    2 1
    14   15   14 1
    15   16   14 1
    16   17   16 ar
    17   18   17 1
    18   19   17 ar
    19   20   19 1
    20   21   19 ar
    21   22   21 1
    22   23   22 2
    23   24   22 2
    24   25   21 ar
    25   26   25 1
    26   27   16 ar
    27   28   27 1
    28   29   14 1
    29   30   29 1
    30   31   29 1
    31   32   31 2
    32   33   31 2
    33   34    1 1
    34   35   34 1
    35   36   34 1
    36   37   36 ar
    37   38   37 1
    38   39   37 ar
    39   40   39 1
    40   41   39 ar
    41   42   41 1
    42   43   41 ar
    43   44   43 1
    44   45   36 ar
    45   46   45 1
    46   10   12 ar
    47   25   27 ar
    48   29   34 1
    49   43   45 ar
@<TRIPOS>SUBSTRUCTURE
     1 RES1 1

@<TRIPOS>CRYSIN
   7.2420    8.3710   16.5870  84.3200  78.7200  70.0100   2 1

