# MOL2 file generated by ConQuest
# Please check atom types

@<TRIPOS>MOLECULE
YOBNOU
    31    32     1
SMALL
NO_CHARGES
****
Generated from CSD

@<TRIPOS>ATOM
      1 C1         3.9795    4.2573    1.7103 C.2       1 RES1    0.0000
      2 C2         4.9474    3.9473    2.8439 C.2       1 RES1    0.0000
      3 C3         5.4362    6.3837    3.0739 C.ar      1 RES1    0.0000
      4 C4         5.6649    5.0656    3.4787 C.ar      1 RES1    0.0000
      5 C5         6.5992    4.7936    4.4786 C.ar      1 RES1    0.0000
      6 H1         6.7437    3.8995    4.7646 H         1 RES1    0.0000
      7 C6         4.4257    6.6957    2.0208 C.2       1 RES1    0.0000
      8 C7         6.1430    7.4266    3.6715 C.ar      1 RES1    0.0000
      9 H2         5.9792    8.3262    3.4133 H         1 RES1    0.0000
     10 O1         1.5350    5.7948    0.7953 O.2       1 RES1    0.0000
     11 C8         7.0879    7.1398    4.6482 C.ar      1 RES1    0.0000
     12 H3         7.5832    7.8473    5.0429 H         1 RES1    0.0000
     13 C9         3.7401    5.5729    1.4171 C.2       1 RES1    0.0000
     14 C10        2.6530    1.6614   -0.5938 C.3       1 RES1    0.0000
     15 H4         2.2702    1.0685    0.1003 H         1 RES1    0.0000
     16 H5         3.5808    1.3637   -0.7692 H         1 RES1    0.0000
     17 C11        1.8354    1.5285   -1.8720 C.3       1 RES1    0.0000
     18 H6         0.8981    1.7499   -1.6850 H         1 RES1    0.0000
     19 H7         1.8926    0.6078   -2.2027 H         1 RES1    0.0000
     20 H8         2.1869    2.1425   -2.5499 H         1 RES1    0.0000
     21 C12        7.3163    5.8335    5.0528 C.ar      1 RES1    0.0000
     22 H9         7.9636    5.6502    5.7238 H         1 RES1    0.0000
     23 C13        2.6771    3.0787   -0.0772 C.3       1 RES1    0.0000
     24 H10        3.0511    3.6787   -0.7692 H         1 RES1    0.0000
     25 H11        1.7549    3.3756    0.1227 H         1 RES1    0.0000
     26 N1         2.7017    5.9621    0.4591 N.pl3     1 RES1    0.0000
     27 N2         3.4927    3.1589    1.1355 N.3       1 RES1    0.0000
     28 H12        3.7499    2.4298    1.5114 H         1 RES1    0.0000
     29 O2         5.1037    2.7894    3.1715 O.2       1 RES1    0.0000
     30 O3         3.0347    6.4444   -0.6102 O.2       1 RES1    0.0000
     31 O4         4.1738    7.8567    1.7080 O.2       1 RES1    0.0000
@<TRIPOS>BOND
     1    1    2 1
     2    2    4 1
     3    3    4 ar
     4    4    5 ar
     5    5    6 1
     6    7    3 1
     7    8    3 ar
     8    9    8 1
     9   10   26 2
    10   11    8 ar
    11   12   11 1
    12   13    1 2
    13   14   15 1
    14   16   14 1
    15   17   14 1
    16   18   17 1
    17   19   17 1
    18   20   17 1
    19   21    5 ar
    20   22   21 1
    21   23   14 1
    22   24   23 1
    23   25   23 1
    24   26   13 1
    25   27    1 1
    26   28   27 1
    27   29    2 2
    28   30   26 2
    29   31    7 2
    30    7   13 1
    31   11   21 ar
    32   23   27 1
@<TRIPOS>SUBSTRUCTURE
     1 RES1 1

@<TRIPOS>CRYSIN
  20.2191    7.9146   15.8395  90.0000 109.1370  90.0000  15 1

