# MOL2 file generated by ConQuest
# Please check atom types

@<TRIPOS>MOLECULE
YOCXOE
    65    67     2
SMALL
NO_CHARGES
****
Generated from CSD

@<TRIPOS>ATOM
      1 O1        -0.0418   15.0252    7.7123 O.2       1 RES1    0.0000
      2 O2         0.2806   13.5210    3.0263 O.2       1 RES1    0.0000
      3 O3         6.3455   17.0049    5.1442 O.2       1 RES1    0.0000
      4 O4         6.1966   17.0449    4.8991 Du        2 SUP2    0.0000
      5 O5         7.0057   15.2716    4.1667 O.2       1 RES1    0.0000
      6 O6         7.1724   15.0719    4.8390 Du        2 SUP2    0.0000
      7 O7         3.2360    5.7248    8.4213 O.3       1 RES1    0.0000
      8 N1         1.4139   10.6818    6.6286 N.pl3     1 RES1    0.0000
      9 N2         6.1832   15.8417    4.8729 N.pl3     1 RES1    0.0000
     10 C1         1.1497   11.6837    7.5649 C.2       1 RES1    0.0000
     11 C2         0.8650   12.9395    7.1518 C.2       1 RES1    0.0000
     12 C3         1.0696   13.3489    5.7074 C.3       1 RES1    0.0000
     13 H1         0.3900   14.0189    5.4836 H         1 RES1    0.0000
     14 C4         0.8397   12.1467    4.8364 C.2       1 RES1    0.0000
     15 C5         1.0821   10.8937    5.2795 C.2       1 RES1    0.0000
     16 C6         0.3212   13.9150    8.0871 C.2       1 RES1    0.0000
     17 C7         0.1673   13.5046    9.5268 C.3       1 RES1    0.0000
     18 H2        -0.7236   13.1437    9.6568 H         1 RES1    0.0000
     19 H3         0.2509   14.2912   10.0871 H         1 RES1    0.0000
     20 C8         1.1866   12.4689    9.9774 C.3       1 RES1    0.0000
     21 C9         1.1152   11.2817    9.0112 C.3       1 RES1    0.0000
     22 H4         1.8605   10.6866    9.1892 H         1 RES1    0.0000
     23 H5         0.2978   10.7883    9.1794 H         1 RES1    0.0000
     24 C10        2.5922   13.0728    9.9835 C.3       1 RES1    0.0000
     25 H6         2.8238   13.3531    9.0950 H         1 RES1    0.0000
     26 H7         3.2218   12.4139   10.2869 H         1 RES1    0.0000
     27 H8         2.6133   13.8300   10.5727 H         1 RES1    0.0000
     28 C11        0.8434   11.9744   11.3901 C.3       1 RES1    0.0000
     29 H9         1.4922   11.3245   11.6687 H         1 RES1    0.0000
     30 H10       -0.0297   11.5738   11.3862 H         1 RES1    0.0000
     31 H11        0.8509   12.7165   12.0000 H         1 RES1    0.0000
     32 C12        0.3824   12.3838    3.4625 C.2       1 RES1    0.0000
     33 C13        0.0403   11.1812    2.6332 C.3       1 RES1    0.0000
     34 H12        0.0949   11.4104    1.6920 H         1 RES1    0.0000
     35 H13       -0.8694   10.9045    2.8238 H         1 RES1    0.0000
     36 C14        0.9891   10.0399    2.9328 C.3       1 RES1    0.0000
     37 H14        0.7306    9.2632    2.4130 H         1 RES1    0.0000
     38 H15        1.8876   10.2920    2.6679 H         1 RES1    0.0000
     39 C15        0.9817    9.6828    4.4030 C.3       1 RES1    0.0000
     40 H16        0.1625    9.2063    4.6116 H         1 RES1    0.0000
     41 H17        1.7272    9.0913    4.5905 H         1 RES1    0.0000
     42 C16        2.4392   13.9857    5.5078 C.ar      1 RES1    0.0000
     43 C17        2.6541   15.3084    5.8745 C.ar      1 RES1    0.0000
     44 H18        1.9562   15.7945    6.2517 H         1 RES1    0.0000
     45 C18        3.8761   15.9159    5.6915 C.ar      1 RES1    0.0000
     46 H19        4.0077   16.8016    5.9415 H         1 RES1    0.0000
     47 C19        4.8925   15.1883    5.1352 C.ar      1 RES1    0.0000
     48 C20        4.7286   13.8793    4.7724 C.ar      1 RES1    0.0000
     49 H20        5.4336   13.3991    4.4022 H         1 RES1    0.0000
     50 C21        3.5014   13.2832    4.9658 C.ar      1 RES1    0.0000
     51 H21        3.3850   12.3921    4.7269 H         1 RES1    0.0000
     52 C22        1.8498    9.3713    7.0740 C.ar      1 RES1    0.0000
     53 C23        3.2030    9.0977    7.1500 C.ar      1 RES1    0.0000
     54 H22        3.8224    9.7461    6.9012 H         1 RES1    0.0000
     55 C24        3.6368    7.8660    7.5938 C.ar      1 RES1    0.0000
     56 H23        4.5468    7.6812    7.6384 H         1 RES1    0.0000
     57 C25        2.7187    6.9061    7.9729 C.ar      1 RES1    0.0000
     58 C26        1.3708    7.1707    7.8692 C.ar      1 RES1    0.0000
     59 H24        0.7508    6.5180    8.1012 H         1 RES1    0.0000
     60 C27        0.9372    8.4057    7.4192 C.ar      1 RES1    0.0000
     61 H25        0.0270    8.5817    7.3510 H         1 RES1    0.0000
     62 C28        2.4011    4.8933    9.2080 C.3       1 RES1    0.0000
     63 H26        2.0296    5.4044    9.9313 H         1 RES1    0.0000
     64 H27        2.9168    4.1650    9.5627 H         1 RES1    0.0000
     65 H28        1.6900    4.5463    8.6631 H         1 RES1    0.0000
@<TRIPOS>BOND
     1    1   16 2
     2    2   32 2
     3    3    9 2
     4    5    9 2
     5    7   57 1
     6    8   10 1
     7    9   47 1
     8   10   11 2
     9   11   12 1
    10   12   13 1
    11   14   12 1
    12   15    8 1
    13   16   11 1
    14   17   16 1
    15   18   17 1
    16   19   17 1
    17   20   17 1
    18   21   10 1
    19   22   21 1
    20   23   21 1
    21   24   20 1
    22   25   24 1
    23   26   24 1
    24   27   24 1
    25   28   20 1
    26   29   28 1
    27   30   28 1
    28   31   28 1
    29   32   14 1
    30   33   32 1
    31   34   33 1
    32   35   33 1
    33   36   33 1
    34   37   36 1
    35   38   36 1
    36   39   15 1
    37   40   39 1
    38   41   39 1
    39   42   12 1
    40   43   42 ar
    41   44   43 1
    42   45   43 ar
    43   46   45 1
    44   47   45 ar
    45   48   47 ar
    46   49   48 1
    47   50   42 ar
    48   51   50 1
    49   52    8 1
    50   53   52 ar
    51   54   53 1
    52   55   53 ar
    53   56   55 1
    54   57   55 ar
    55   58   57 ar
    56   59   58 1
    57   60   52 ar
    58   61   60 1
    59   62    7 1
    60   63   62 1
    61   64   62 1
    62   65   62 1
    63   14   15 2
    64   20   21 1
    65   36   39 1
    66   48   50 ar
    67   58   60 ar
@<TRIPOS>SUBSTRUCTURE
     1 RES1 1
     2 SUP2 4

@<TRIPOS>CRYSIN
  12.4630   12.1040   16.4080  90.0000  98.2510  90.0000  14 1

