# MOL2 file generated by ConQuest
# Please check atom types

@<TRIPOS>MOLECULE
YODFUT01
    34    34     1
SMALL
NO_CHARGES
****
Generated from CSD

@<TRIPOS>ATOM
      1 O1        -0.3798    4.9267   10.0386 O.3       1 RES1    0.0000
      2 O2        -0.2715    3.0158    8.8603 O.2       1 RES1    0.0000
      3 O3         1.5874    8.8693    8.3611 O.2       1 RES1    0.0000
      4 O4         2.8785    8.9115    6.7346 O.2       1 RES1    0.0000
      5 N1         2.1432    8.3063    7.4451 N.pl3     1 RES1    0.0000
      6 N2         3.2629    6.8238    5.1743 N.3       1 RES1    0.0000
      7 H1         3.4317    7.6650    5.2486 H         1 RES1    0.0000
      8 C1        -0.4823    3.6533   12.0598 C.3       1 RES1    0.0000
      9 H2        -1.0827    3.2265   12.6751 H         1 RES1    0.0000
     10 H3         0.0370    4.3137   12.5242 H         1 RES1    0.0000
     11 H4         0.1040    2.9957   11.6767 H         1 RES1    0.0000
     12 C2        -1.2411    4.2902   11.0103 C.3       1 RES1    0.0000
     13 H5        -1.8316    4.9534   11.3992 H         1 RES1    0.0000
     14 H6        -1.7905    3.6258   10.5645 H         1 RES1    0.0000
     15 C3         0.0571    4.1820    9.0332 C.2       1 RES1    0.0000
     16 C4         0.9215    4.9046    8.0615 C.ar      1 RES1    0.0000
     17 C5         1.1744    6.2503    8.1486 C.ar      1 RES1    0.0000
     18 H7         0.7994    6.7362    8.8463 H         1 RES1    0.0000
     19 C6         1.9661    6.8973    7.2326 C.ar      1 RES1    0.0000
     20 C7         2.5515    6.2201    6.1158 C.ar      1 RES1    0.0000
     21 C8         2.2118    4.8290    6.0752 C.ar      1 RES1    0.0000
     22 H8         2.5158    4.3283    5.3542 H         1 RES1    0.0000
     23 C9         1.5038    4.2219    6.9865 C.ar      1 RES1    0.0000
     24 H9         1.3815    3.3026    6.9203 H         1 RES1    0.0000
     25 C10        3.7810    6.0715    3.9785 C.3       1 RES1    0.0000
     26 H10        4.6595    5.7189    4.1910 H         1 RES1    0.0000
     27 H11        3.1952    5.3163    3.8090 H         1 RES1    0.0000
     28 C11        3.8758    6.8320    2.8153 C.3       1 RES1    0.0000
     29 H12        4.4795    7.5749    2.9732 H         1 RES1    0.0000
     30 H13        3.0024    7.1995    2.6075 H         1 RES1    0.0000
     31 C12        4.3674    6.0458    1.6358 C.3       1 RES1    0.0000
     32 H14        4.4650    6.6298    0.8800 H         1 RES1    0.0000
     33 H15        3.7356    5.3548    1.4268 H         1 RES1    0.0000
     34 H16        5.2165    5.6502    1.8470 H         1 RES1    0.0000
@<TRIPOS>BOND
     1    1   12 1
     2    2   15 2
     3    3    5 2
     4    4    5 2
     5    5   19 1
     6    6    7 1
     7    8    9 1
     8   10    8 1
     9   11    8 1
    10   12    8 1
    11   13   12 1
    12   14   12 1
    13   15    1 1
    14   16   15 1
    15   17   16 ar
    16   18   17 1
    17   19   17 ar
    18   20    6 1
    19   21   20 ar
    20   22   21 1
    21   23   16 ar
    22   24   23 1
    23   25    6 1
    24   26   25 1
    25   27   25 1
    26   28   25 1
    27   29   28 1
    28   30   28 1
    29   31   28 1
    30   32   31 1
    31   33   31 1
    32   34   31 1
    33   19   20 ar
    34   21   23 ar
@<TRIPOS>SUBSTRUCTURE
     1 RES1 1

@<TRIPOS>CRYSIN
   4.4400   12.6060   13.2090  61.7100  83.0200  81.7500   2 1

