# MOL2 file generated by ConQuest
# Please check atom types

@<TRIPOS>MOLECULE
YODFUT
    34    34     1
SMALL
NO_CHARGES
****
Generated from CSD

@<TRIPOS>ATOM
      1 O1         2.7857    8.1650    6.3040 O.2       1 RES1    0.0000
      2 O2         4.3164    6.8989    7.1468 O.2       1 RES1    0.0000
      3 O3         6.1583    7.5608   11.4546 O.3       1 RES1    0.0000
      4 O4         5.7976    9.4806   12.5809 O.2       1 RES1    0.0000
      5 N1         2.1971   10.4821    7.4065 N.3       1 RES1    0.0000
      6 N2         3.6036    7.8972    7.1978 N.pl3     1 RES1    0.0000
      7 C1         3.7077    8.7892    8.3309 C.ar      1 RES1    0.0000
      8 C2         4.5487    8.3713    9.3665 C.ar      1 RES1    0.0000
      9 H1         5.0081    7.5661    9.2916 H         1 RES1    0.0000
     10 C3         4.7038    9.1421   10.4973 C.ar      1 RES1    0.0000
     11 C4         4.0042   10.3625   10.5789 C.ar      1 RES1    0.0000
     12 H2         4.0952   10.8874   11.3411 H         1 RES1    0.0000
     13 C5         3.1964   10.7931    9.5683 C.ar      1 RES1    0.0000
     14 H3         2.7613   11.6100    9.6545 H         1 RES1    0.0000
     15 C6         2.9987   10.0271    8.3808 C.ar      1 RES1    0.0000
     16 C7         1.4881   11.7613    7.4315 C.3       1 RES1    0.0000
     17 H4         1.1047   11.8887    8.3139 H         1 RES1    0.0000
     18 H5         0.7574   11.7265    6.7952 H         1 RES1    0.0000
     19 C8         2.3690   12.9593    7.1025 C.3       1 RES1    0.0000
     20 H6         3.0867   13.0245    7.7513 H         1 RES1    0.0000
     21 H7         2.7648   12.8415    6.2246 H         1 RES1    0.0000
     22 C9         1.5433   14.2398    7.1230 C.3       1 RES1    0.0000
     23 H8         2.1215   14.9947    6.9971 H         1 RES1    0.0000
     24 H9         1.0940   14.3170    7.9680 H         1 RES1    0.0000
     25 H10        0.8940   14.2125    6.4163 H         1 RES1    0.0000
     26 C10        5.5968    8.7728   11.6145 C.2       1 RES1    0.0000
     27 C11        7.0398    7.1168   12.5241 C.3       1 RES1    0.0000
     28 H11        7.5221    7.8774   12.8826 H         1 RES1    0.0000
     29 H12        7.6887    6.4895   12.1680 H         1 RES1    0.0000
     30 C12        6.2503    6.4537   13.6277 C.3       1 RES1    0.0000
     31 H13        6.8531    6.1258   14.2992 H         1 RES1    0.0000
     32 H14        5.7461    5.7214   13.2659 H         1 RES1    0.0000
     33 H15        5.6506    7.0923   14.0202 H         1 RES1    0.0000
     34 H16        2.0754    9.9806    6.7260 H         1 RES1    0.0000
@<TRIPOS>BOND
     1    1    6 2
     2    2    6 2
     3    3   26 1
     4    4   26 2
     5    5   15 1
     6    6    7 1
     7    7    8 ar
     8    8    9 1
     9   10    8 ar
    10   11   10 ar
    11   12   11 1
    12   13   11 ar
    13   14   13 1
    14   15    7 ar
    15   16    5 1
    16   17   16 1
    17   18   16 1
    18   19   16 1
    19   20   19 1
    20   21   19 1
    21   22   19 1
    22   23   22 1
    23   24   22 1
    24   25   22 1
    25   26   10 1
    26   27    3 1
    27   28   27 1
    28   29   27 1
    29   30   27 1
    30   31   30 1
    31   32   30 1
    32   33   30 1
    33   34    5 1
    34   13   15 ar
@<TRIPOS>SUBSTRUCTURE
     1 RES1 1

@<TRIPOS>CRYSIN
   4.4914   12.0828   12.8763  62.4940  81.0550  83.4940   2 1

