# MOL2 file generated by ConQuest
# Please check atom types

@<TRIPOS>MOLECULE
YODHAC
    41    42     1
SMALL
NO_CHARGES
****
Generated from CSD

@<TRIPOS>ATOM
      1 N1         7.0035    2.4321    3.2218 N.pl3     1 RES1    0.0000
      2 O1        10.1167    0.4737   -0.5267 O.2       1 RES1    0.0000
      3 O2         5.6138    1.4691   -1.2256 O.2       1 RES1    0.0000
      4 O3         7.2306    2.6993   -2.0599 O.3       1 RES1    0.0000
      5 O4         7.4357    3.5650    3.1383 O.2       1 RES1    0.0000
      6 O5         5.9971    2.1439    3.8029 O.2       1 RES1    0.0000
      7 C1         9.4759    0.3020    0.4916 C.2       1 RES1    0.0000
      8 C2        10.0456    0.5043    1.8586 C.3       1 RES1    0.0000
      9 H1        10.9775    0.7637    1.7847 H         1 RES1    0.0000
     10 H2        10.0046   -0.3308    2.3502 H         1 RES1    0.0000
     11 C3         9.2744    1.5874    2.6291 C.3       1 RES1    0.0000
     12 H3         9.4414    2.4465    2.1881 H         1 RES1    0.0000
     13 C4         7.7818    1.3010    2.5396 C.3       1 RES1    0.0000
     14 H4         7.6085    0.4779    3.0415 H         1 RES1    0.0000
     15 C5         7.2210    1.1071    1.1284 C.3       1 RES1    0.0000
     16 H5         6.2870    0.8207    1.2101 H         1 RES1    0.0000
     17 C6         8.0155   -0.0378    0.4747 C.3       1 RES1    0.0000
     18 H6         7.8642   -0.8633    0.9611 H         1 RES1    0.0000
     19 H7         7.7183   -0.1645   -0.4397 H         1 RES1    0.0000
     20 C7         9.7746    1.6924    4.0519 C.ar      1 RES1    0.0000
     21 C8         9.5416    0.6982    4.9767 C.ar      1 RES1    0.0000
     22 H8         9.0454   -0.0486    4.7302 H         1 RES1    0.0000
     23 C9        10.0311    0.7937    6.2516 C.ar      1 RES1    0.0000
     24 H9         9.8683    0.1057    6.8560 H         1 RES1    0.0000
     25 C10       10.7468    1.8684    6.6459 C.ar      1 RES1    0.0000
     26 H10       11.0672    1.9254    7.5175 H         1 RES1    0.0000
     27 C11       10.9953    2.8794    5.7445 C.ar      1 RES1    0.0000
     28 H11       11.4932    3.6220    6.0000 H         1 RES1    0.0000
     29 C12       10.4961    2.7827    4.4553 C.ar      1 RES1    0.0000
     30 H12       10.6564    3.4725    3.8521 H         1 RES1    0.0000
     31 C13        7.2584    2.3583    0.2542 C.3       1 RES1    0.0000
     32 H13        6.8000    3.0829    0.7069 H         1 RES1    0.0000
     33 H14        8.1809    2.6266    0.1154 H         1 RES1    0.0000
     34 C14        6.6036    2.1049   -1.0804 C.2       1 RES1    0.0000
     35 C15        6.6718    2.4657   -3.4021 C.3       1 RES1    0.0000
     36 H15        6.6328    1.5129   -3.5798 H         1 RES1    0.0000
     37 H16        5.7706    2.8205   -3.4475 H         1 RES1    0.0000
     38 C16        7.4505    3.0739   -4.3256 C.3       1 RES1    0.0000
     39 H17        7.4794    4.0159   -4.1492 H         1 RES1    0.0000
     40 H18        7.0859    2.9208   -5.1998 H         1 RES1    0.0000
     41 H19        8.3395    2.7113   -4.2815 H         1 RES1    0.0000
@<TRIPOS>BOND
     1    1    5 2
     2    2    7 2
     3    3   34 2
     4    4   34 1
     5    6    1 2
     6    7    8 1
     7    8    9 1
     8   10    8 1
     9   11    8 1
    10   12   11 1
    11   13    1 1
    12   14   13 1
    13   15   13 1
    14   16   15 1
    15   17    7 1
    16   18   17 1
    17   19   17 1
    18   20   11 1
    19   21   20 ar
    20   22   21 1
    21   23   21 ar
    22   24   23 1
    23   25   23 ar
    24   26   25 1
    25   27   25 ar
    26   28   27 1
    27   29   20 ar
    28   30   29 1
    29   31   15 1
    30   32   31 1
    31   33   31 1
    32   34   31 1
    33   35    4 1
    34   36   35 1
    35   37   35 1
    36   38   35 1
    37   39   38 1
    38   40   38 1
    39   41   38 1
    40   11   13 1
    41   15   17 1
    42   27   29 ar
@<TRIPOS>SUBSTRUCTURE
     1 RES1 1

@<TRIPOS>CRYSIN
  10.4420    6.0037   13.4500  90.0000 105.3500  90.0000   4 1

