# MOL2 file generated by ConQuest
# Please check atom types

@<TRIPOS>MOLECULE
YODKAE
    21    22     1
SMALL
NO_CHARGES
****
Generated from CSD

@<TRIPOS>ATOM
      1 O1         4.8894    1.2172    5.7963 O.3       1 RES1    0.0000
      2 O2         5.5939    2.4882    7.9154 O.2       1 RES1    0.0000
      3 O3         9.2359   -1.2408    9.1137 O.2       1 RES1    0.0000
      4 O4         7.8854   -3.6216    8.2526 O.2       1 RES1    0.0000
      5 O5         9.2492   -3.1926    6.6162 O.2       1 RES1    0.0000
      6 N1         8.2685   -2.9426    7.3104 N.pl3     1 RES1    0.0000
      7 C1         5.7550    0.2680    6.1732 C.ar      1 RES1    0.0000
      8 C2         5.8702   -0.8766    5.3700 C.ar      1 RES1    0.0000
      9 C3         6.7068   -1.9045    5.7522 C.ar      1 RES1    0.0000
     10 C4         7.4541   -1.7761    6.9248 C.ar      1 RES1    0.0000
     11 C5         7.4273   -0.6322    7.7026 C.ar      1 RES1    0.0000
     12 C6         8.3556   -0.4352    8.8541 C.2       1 RES1    0.0000
     13 C7         8.2262    0.8118    9.6299 C.2       1 RES1    0.0000
     14 C8         7.3333    1.7564    9.3172 C.2       1 RES1    0.0000
     15 C9         6.4265    1.6080    8.1636 C.2       1 RES1    0.0000
     16 C10        6.5453    0.4018    7.3321 C.ar      1 RES1    0.0000
     17 H1         7.2574    2.5705    9.8011 H         1 RES1    0.0000
     18 H2         5.3393   -0.9318    4.5608 H         1 RES1    0.0000
     19 H3         6.7763   -2.7221    5.2354 H         1 RES1    0.0000
     20 H4         8.8633    0.9242   10.3687 H         1 RES1    0.0000
     21 H5         4.9415    1.8788    6.3878 H         1 RES1    0.0000
@<TRIPOS>BOND
     1    1    7 1
     2    2   15 2
     3    3   12 2
     4    4    6 2
     5    5    6 2
     6    6   10 1
     7    7    8 ar
     8    8    9 ar
     9    9   10 ar
    10   10   11 ar
    11   11   12 1
    12   12   13 1
    13   13   14 2
    14   14   15 1
    15   15   16 1
    16   16    7 ar
    17   17   14 1
    18   18    8 1
    19   19    9 1
    20   20   13 1
    21   21    1 1
    22   11   16 ar
@<TRIPOS>SUBSTRUCTURE
     1 RES1 1

@<TRIPOS>CRYSIN
   8.6809    8.4250   12.1845  90.0000  93.9460  90.0000 231 1

