# MOL2 file generated by ConQuest
# Please check atom types

@<TRIPOS>MOLECULE
YODMOT
    24    24     1
SMALL
NO_CHARGES
****
Generated from CSD

@<TRIPOS>ATOM
      1 O1         8.0119    6.4311    0.2248 O.3       1 RES1    0.0000
      2 O2         9.2645    6.3997   -1.6455 O.2       1 RES1    0.0000
      3 O3        11.1493    4.1912    1.4402 O.3       1 RES1    0.0000
      4 O4         6.9302    4.9812    2.3506 O.2       1 RES1    0.0000
      5 O5         7.0848    2.8870    1.7417 O.2       1 RES1    0.0000
      6 O6         9.4448    2.7013   -0.5416 O.2       1 RES1    0.0000
      7 O7         7.7099    3.8898   -0.9765 O.2       1 RES1    0.0000
      8 O8        10.2163    7.6173    1.0327 O.2       1 RES1    0.0000
      9 N1         7.4570    4.0569    1.7647 N.pl3     1 RES1    0.0000
     10 N2         8.6464    3.5441   -0.2755 N.pl3     1 RES1    0.0000
     11 N3        10.1261    6.3997    1.1859 N.pl3     1 RES1    0.0000
     12 C1         9.0093    5.6926    0.8290 C.2       1 RES1    0.0000
     13 C2         8.8009    4.3469    1.0579 C.3       1 RES1    0.0000
     14 C3         9.9131    3.7284    1.9028 C.3       1 RES1    0.0000
     15 C4        11.2921    5.5769    1.7317 C.3       1 RES1    0.0000
     16 C5         8.2788    6.7668   -1.1204 C.2       1 RES1    0.0000
     17 C6         7.1386    7.5768   -1.6089 C.3       1 RES1    0.0000
     18 H1         7.3868    7.8510   -2.4644 H         1 RES1    0.0000
     19 H2         7.3353    8.5410   -0.9328 H         1 RES1    0.0000
     20 H3         6.4479    7.1854   -1.9399 H         1 RES1    0.0000
     21 H4        12.0249    5.7211    1.0189 H         1 RES1    0.0000
     22 H5        11.6925    5.6940    2.6987 H         1 RES1    0.0000
     23 H6        10.1495    2.7270    2.1252 H         1 RES1    0.0000
     24 H7         9.6696    4.0784    2.9347 H         1 RES1    0.0000
@<TRIPOS>BOND
     1    1   12 1
     2    2   16 2
     3    3   14 1
     4    4    9 2
     5    5    9 2
     6    6   10 2
     7    7   10 2
     8    8   11 1
     9    9   13 1
    10   10   13 1
    11   11   12 2
    12   12   13 1
    13   13   14 1
    14   14   23 1
    15   15    3 1
    16   16    1 1
    17   17   16 1
    18   18   17 1
    19   19   17 1
    20   20   17 1
    21   21   15 1
    22   22   15 1
    23   24   14 1
    24   11   15 1
@<TRIPOS>SUBSTRUCTURE
     1 RES1 1

@<TRIPOS>CRYSIN
  23.4130   14.2850    5.9000  90.0000  90.0000  90.0000  61 3

