# MOL2 file generated by ConQuest
# Please check atom types

@<TRIPOS>MOLECULE
YOFVIA
    62    65     1
SMALL
NO_CHARGES
****
Generated from CSD

@<TRIPOS>ATOM
      1 O1         9.4017    4.7843   15.4129 O.2       1 RES1    0.0000
      2 O2         8.8392    1.1701    9.9478 O.2       1 RES1    0.0000
      3 O3         3.9512    4.2787   11.5995 O.2       1 RES1    0.0000
      4 C1         8.3028    5.1899   15.0558 C.2       1 RES1    0.0000
      5 N1         4.0517    5.9226   13.1825 N.am      1 RES1    0.0000
      6 N2         8.5522    2.0204   10.8645 N.3       1 RES1    0.0000
      7 N3         7.7371    4.8828   13.8756 N.am      1 RES1    0.0000
      8 H1         6.9440    5.2166   13.6897 H         1 RES1    0.0000
      9 N4         6.0906    6.2383   15.4716 N.3       1 RES1    0.0000
     10 C2         8.4388    3.4494   10.4243 C.3       1 RES1    0.0000
     11 C3         8.3803    4.0219   12.8931 C.3       1 RES1    0.0000
     12 H2         9.3612    4.2155   12.8735 H         1 RES1    0.0000
     13 C4         7.7856    4.2804   11.5182 C.3       1 RES1    0.0000
     14 H3         6.8173    4.0765   11.5430 H         1 RES1    0.0000
     15 H4         7.8881    5.2397   11.2990 H         1 RES1    0.0000
     16 C5         5.2468    5.2434   16.1344 C.3       1 RES1    0.0000
     17 H5         5.2438    5.4150   17.1092 H         1 RES1    0.0000
     18 H6         5.6269    4.3416   15.9847 H         1 RES1    0.0000
     19 C6         8.1615    2.5548   13.2353 C.3       1 RES1    0.0000
     20 H7         7.1903    2.3642   13.2280 H         1 RES1    0.0000
     21 H8         8.4947    2.3845   14.1513 H         1 RES1    0.0000
     22 C7         7.4769    6.1357   15.9130 C.3       1 RES1    0.0000
     23 H9         7.4941    5.8192   16.8503 H         1 RES1    0.0000
     24 H10        7.8899    7.0346   15.8907 H         1 RES1    0.0000
     25 C8         4.4418    8.1799   12.5769 C.2       1 RES1    0.0000
     26 H11        4.5543    9.0917   12.8191 H         1 RES1    0.0000
     27 C9         8.8640    1.6000   12.2653 C.3       1 RES1    0.0000
     28 C10        9.8353    3.9694   10.0654 C.3       1 RES1    0.0000
     29 H12        9.7561    4.8443    9.6321 H         1 RES1    0.0000
     30 H13       10.2715    3.3406    9.4540 H         1 RES1    0.0000
     31 H14       10.3709    4.0562   10.8818 H         1 RES1    0.0000
     32 C11        4.2058    7.2435   13.5370 C.2       1 RES1    0.0000
     33 C12        3.8120    5.2778   15.6126 C.3       1 RES1    0.0000
     34 H15        3.2682    4.6400   16.1578 H         1 RES1    0.0000
     35 C13        5.5368    7.5777   15.6124 C.3       1 RES1    0.0000
     36 H16        6.1213    8.2312   15.1521 H         1 RES1    0.0000
     37 H17        5.4919    7.8227   16.5700 H         1 RES1    0.0000
     38 C14        4.1142    5.4759   11.8515 C.2       1 RES1    0.0000
     39 C15        3.7146    4.8576   14.1604 C.3       1 RES1    0.0000
     40 H18        4.3217    4.0895   14.0128 H         1 RES1    0.0000
     41 H19        2.7920    4.5473   13.9831 H         1 RES1    0.0000
     42 C16        7.5533    3.4730    9.1770 C.3       1 RES1    0.0000
     43 H20        6.6768    3.0899    9.3913 H         1 RES1    0.0000
     44 H21        7.9748    2.9451    8.4664 H         1 RES1    0.0000
     45 H22        7.4402    4.3981    8.8736 H         1 RES1    0.0000
     46 C17        4.1339    7.6181   15.0021 C.3       1 RES1    0.0000
     47 H23        3.7753    8.5484   15.0796 H         1 RES1    0.0000
     48 C18        4.3682    6.5009   10.8772 C.2       1 RES1    0.0000
     49 H24        4.4320    6.2639    9.9602 H         1 RES1    0.0000
     50 C19       10.3830    1.5748   12.4725 C.3       1 RES1    0.0000
     51 H25       10.7923    0.9735   11.8167 H         1 RES1    0.0000
     52 H26       10.5844    1.2560   13.3780 H         1 RES1    0.0000
     53 H27       10.7440    2.4786   12.3575 H         1 RES1    0.0000
     54 C20        3.2149    6.6669   15.7791 C.3       1 RES1    0.0000
     55 H28        3.1833    6.9187   16.7366 H         1 RES1    0.0000
     56 H29        2.2958    6.6956   15.4126 H         1 RES1    0.0000
     57 C21        4.5182    7.7982   11.2393 C.2       1 RES1    0.0000
     58 H30        4.6774    8.4557   10.5718 H         1 RES1    0.0000
     59 C22        8.3139    0.1857   12.4691 C.3       1 RES1    0.0000
     60 H31        7.3545    0.1767   12.2701 H         1 RES1    0.0000
     61 H32        8.4564   -0.0898   13.3995 H         1 RES1    0.0000
     62 H33        8.7783   -0.4346   11.8694 H         1 RES1    0.0000
@<TRIPOS>BOND
     1    1    4 2
     2    2    6 1
     3    3   38 2
     4    4    7 1
     5    5   32 1
     6    6   10 1
     7    7    8 1
     8    9   16 1
     9   10   13 1
    10   11    7 1
    11   12   11 1
    12   13   11 1
    13   14   13 1
    14   15   13 1
    15   16   17 1
    16   18   16 1
    17   19   11 1
    18   20   19 1
    19   21   19 1
    20   22    4 1
    21   23   22 1
    22   24   22 1
    23   25   26 1
    24   27    6 1
    25   28   10 1
    26   29   28 1
    27   30   28 1
    28   31   28 1
    29   32   25 2
    30   33   16 1
    31   34   33 1
    32   35    9 1
    33   36   35 1
    34   37   35 1
    35   38    5 1
    36   39    5 1
    37   40   39 1
    38   41   39 1
    39   42   10 1
    40   43   42 1
    41   44   42 1
    42   45   42 1
    43   46   32 1
    44   47   46 1
    45   48   38 1
    46   49   48 1
    47   50   27 1
    48   51   50 1
    49   52   50 1
    50   53   50 1
    51   54   33 1
    52   55   54 1
    53   56   54 1
    54   57   25 1
    55   58   57 1
    56   59   27 1
    57   60   59 1
    58   61   59 1
    59   62   59 1
    60    9   22 1
    61   19   27 1
    62   33   39 1
    63   35   46 1
    64   46   54 1
    65   48   57 2
@<TRIPOS>SUBSTRUCTURE
     1 RES1 1

@<TRIPOS>CRYSIN
   9.1213   14.4864   16.4876  90.0000  90.0000  90.0000  19 1

