# MOL2 file generated by ConQuest
# Please check atom types

@<TRIPOS>MOLECULE
YOHCII
    51    53     1
SMALL
NO_CHARGES
****
Generated from CSD

@<TRIPOS>ATOM
      1 O1         9.9544    0.4441    1.2444 O.3       1 RES1    0.0000
      2 O2        12.5042    3.8309    2.1559 O.3       1 RES1    0.0000
      3 O3        12.1197    1.9836    0.8209 O.3       1 RES1    0.0000
      4 O4         5.0050   -0.4102    6.2175 O.2       1 RES1    0.0000
      5 O5         3.9900    0.3906    4.4822 O.2       1 RES1    0.0000
      6 N1         5.0070    0.0884    5.1015 N.pl3     1 RES1    0.0000
      7 C1        10.0810    0.9926    2.5605 C.3       1 RES1    0.0000
      8 C2        10.5482    2.4851    2.5417 C.3       1 RES1    0.0000
      9 C3        12.0401    2.5030    2.1334 C.3       1 RES1    0.0000
     10 C4         8.7344    0.7747    3.2335 C.ar      1 RES1    0.0000
     11 C5         8.6767    0.3477    4.5562 C.ar      1 RES1    0.0000
     12 C6         7.4608    0.1125    5.1697 C.ar      1 RES1    0.0000
     13 C7         6.3106    0.3410    4.4597 C.ar      1 RES1    0.0000
     14 C8         6.3246    0.7620    3.1552 C.ar      1 RES1    0.0000
     15 C9         7.5495    0.9659    2.5366 C.ar      1 RES1    0.0000
     16 C10        9.7422    3.3032    1.5228 C.3       1 RES1    0.0000
     17 C11       10.4341    3.0531    3.9623 C.ar      1 RES1    0.0000
     18 C12       11.2723    2.5713    4.9985 C.ar      1 RES1    0.0000
     19 C13       11.1786    3.0629    6.2734 C.ar      1 RES1    0.0000
     20 C14       10.2403    4.0575    6.6077 C.ar      1 RES1    0.0000
     21 C15       10.1208    4.5948    7.9130 C.ar      1 RES1    0.0000
     22 C16        9.1945    5.5323    8.1994 C.ar      1 RES1    0.0000
     23 C17        8.3385    5.9932    7.2001 C.ar      1 RES1    0.0000
     24 C18        8.4289    5.5108    5.9347 C.ar      1 RES1    0.0000
     25 C19        9.3851    4.5294    5.5975 C.ar      1 RES1    0.0000
     26 C20        9.5158    4.0065    4.2850 C.ar      1 RES1    0.0000
     27 C21       13.7590    4.0679    2.7375 C.3       1 RES1    0.0000
     28 C22       13.4272    1.7031    0.3423 C.3       1 RES1    0.0000
     29 H1        10.8287    0.3982    3.1668 H         1 RES1    0.0000
     30 H2         9.5353    0.1120    5.0384 H         1 RES1    0.0000
     31 H3         7.3571   -0.2355    6.1312 H         1 RES1    0.0000
     32 H4         5.4557    1.0126    2.6867 H         1 RES1    0.0000
     33 H5         7.5808    1.1927    1.5083 H         1 RES1    0.0000
     34 H6        10.0258    4.2495    1.5678 H         1 RES1    0.0000
     35 H7         8.7653    3.2417    1.7999 H         1 RES1    0.0000
     36 H8         9.8984    2.9291    0.5888 H         1 RES1    0.0000
     37 H9        12.0810    1.9011    4.8078 H         1 RES1    0.0000
     38 H10       11.8145    2.6599    6.9971 H         1 RES1    0.0000
     39 H11       10.7628    4.2440    8.5402 H         1 RES1    0.0000
     40 H12        9.0126    5.7976    9.1247 H         1 RES1    0.0000
     41 H13        7.5867    6.6887    7.4438 H         1 RES1    0.0000
     42 H14        7.7922    5.7897    5.1574 H         1 RES1    0.0000
     43 H15        8.8701    4.4241    3.5685 H         1 RES1    0.0000
     44 H16       12.6324    1.8721    2.7984 H         1 RES1    0.0000
     45 H17       13.6542    4.2439    3.6650 H         1 RES1    0.0000
     46 H18       14.1628    4.8177    2.3162 H         1 RES1    0.0000
     47 H19       14.3114    3.3040    2.6207 H         1 RES1    0.0000
     48 H20       13.7986    1.0068    1.1015 H         1 RES1    0.0000
     49 H21       13.9658    2.5225    0.3038 H         1 RES1    0.0000
     50 H22       13.4029    1.2745   -0.5591 H         1 RES1    0.0000
     51 H23       10.8306    0.7354    0.9079 H         1 RES1    0.0000
@<TRIPOS>BOND
     1    1    7 1
     2    2    9 1
     3    3    9 1
     4    4    6 2
     5    5    6 2
     6    6   13 1
     7    7    8 1
     8    8    9 1
     9    9   44 1
    10   10    7 1
    11   11   10 ar
    12   12   11 ar
    13   13   12 ar
    14   14   13 ar
    15   15   10 ar
    16   16    8 1
    17   17    8 1
    18   18   17 ar
    19   19   18 ar
    20   20   19 ar
    21   21   20 ar
    22   22   21 ar
    23   23   22 ar
    24   24   23 ar
    25   25   20 ar
    26   26   17 ar
    27   27    2 1
    28   28    3 1
    29   29    7 1
    30   30   11 1
    31   31   12 1
    32   32   14 1
    33   33   15 1
    34   34   16 1
    35   35   16 1
    36   36   16 1
    37   37   18 1
    38   38   19 1
    39   39   21 1
    40   40   22 1
    41   41   23 1
    42   42   24 1
    43   43   26 1
    44   45   27 1
    45   46   27 1
    46   47   27 1
    47   48   28 1
    48   49   28 1
    49   50   28 1
    50   51    1 1
    51   14   15 ar
    52   24   25 ar
    53   25   26 ar
@<TRIPOS>SUBSTRUCTURE
     1 RES1 1

@<TRIPOS>CRYSIN
  10.3715   14.0200    7.6066 102.6990  97.1080 109.0780   2 1

