# MOL2 file generated by ConQuest
# Please check atom types

@<TRIPOS>MOLECULE
YOHDUW
    20    20     1
SMALL
NO_CHARGES
****
Generated from CSD

@<TRIPOS>ATOM
      1 O1         1.0724   10.4010   10.1826 O.2       1 RES1    0.0000
      2 O2         1.9787    8.8908   11.3870 O.2       1 RES1    0.0000
      3 N1         1.5932    9.3114   10.3217 N.pl3     1 RES1    0.0000
      4 C1         1.8036    8.4899    9.1182 C.ar      1 RES1    0.0000
      5 C2         1.4728    7.1390    9.1288 C.ar      1 RES1    0.0000
      6 C3         1.7128    6.4360    7.9443 C.ar      1 RES1    0.0000
      7 C4         2.2667    7.0930    6.8594 C.ar      1 RES1    0.0000
      8 H1         2.4460    6.6002    6.0671 H         1 RES1    0.0000
      9 C5         2.5644    8.4269    6.8894 C.ar      1 RES1    0.0000
     10 H2         2.9366    8.8493    6.1236 H         1 RES1    0.0000
     11 C6         2.3257    9.1505    8.0231 C.ar      1 RES1    0.0000
     12 H3         2.5129   10.0818    8.0575 H         1 RES1    0.0000
     13 C7         0.8548    6.4526   10.3205 C.3       1 RES1    0.0000
     14 H4         1.5590    6.0309   10.8558 H         1 RES1    0.0000
     15 H5         0.2250    5.7672   10.0125 H         1 RES1    0.0000
     16 H6         0.3788    7.1120   10.8671 H         1 RES1    0.0000
     17 C8         1.3690    4.9723    7.8244 C.3       1 RES1    0.0000
     18 H7         1.6479    4.6427    6.9443 H         1 RES1    0.0000
     19 H8         0.4016    4.8544    7.9261 H         1 RES1    0.0000
     20 H9         1.8351    4.4688    8.5236 H         1 RES1    0.0000
@<TRIPOS>BOND
     1    1    3 2
     2    2    3 2
     3    3    4 1
     4    4    5 ar
     5    5    6 ar
     6    6    7 ar
     7    7    8 1
     8    9    7 ar
     9   10    9 1
    10   11    4 ar
    11   12   11 1
    12   13    5 1
    13   14   13 1
    14   15   13 1
    15   16   13 1
    16   17    6 1
    17   18   17 1
    18   19   17 1
    19   20   17 1
    20    9   11 ar
@<TRIPOS>SUBSTRUCTURE
     1 RES1 1

@<TRIPOS>CRYSIN
   3.9338   14.0220   14.1260  90.0000  90.0000  90.0000  19 1

