# MOL2 file generated by ConQuest
# Please check atom types

@<TRIPOS>MOLECULE
YOHHUA
    60    63     1
SMALL
NO_CHARGES
****
Generated from CSD

@<TRIPOS>ATOM
      1 O1        11.2496    1.9021    1.0632 O.2       1 RES1    0.0000
      2 O2        14.1274    3.8580    0.2014 O.3       1 RES1    0.0000
      3 O3        16.8945   -1.9964    1.1256 O.2       1 RES1    0.0000
      4 O4        17.6476   -0.8561    2.7898 O.2       1 RES1    0.0000
      5 N1        16.8249   -1.0639    1.9149 N.pl3     1 RES1    0.0000
      6 C1        12.3939    3.8510    1.7402 C.ar      1 RES1    0.0000
      7 C2        13.3122    4.5844    1.0032 C.ar      1 RES1    0.0000
      8 C3        13.3192    5.9954    1.0389 C.ar      1 RES1    0.0000
      9 H1        13.9630    6.4866    0.5427 H         1 RES1    0.0000
     10 C4        12.3918    6.6424    1.7919 C.ar      1 RES1    0.0000
     11 H2        12.3844    7.5928    1.7945 H         1 RES1    0.0000
     12 C5        11.4408    5.9492    2.5694 C.ar      1 RES1    0.0000
     13 C6        11.4408    4.5164    2.5694 C.ar      1 RES1    0.0000
     14 C7        12.3028    2.3847    1.4392 C.2       1 RES1    0.0000
     15 C8        13.5155    1.5170    1.5706 C.ar      1 RES1    0.0000
     16 C9        14.5280    1.8003    2.4806 C.ar      1 RES1    0.0000
     17 H3        14.4745    2.5856    3.0134 H         1 RES1    0.0000
     18 C10       15.6091    0.9515    2.6181 C.ar      1 RES1    0.0000
     19 H4        16.2941    1.1298    3.2518 H         1 RES1    0.0000
     20 C11       15.6657   -0.1670    1.8041 C.ar      1 RES1    0.0000
     21 C12       14.6876   -0.4646    0.8756 C.ar      1 RES1    0.0000
     22 H5        14.7583   -1.2344    0.3227 H         1 RES1    0.0000
     23 C13       13.6031    0.3835    0.7703 C.ar      1 RES1    0.0000
     24 H6        12.9119    0.1917    0.1470 H         1 RES1    0.0000
     25 C14       15.2108    4.4801   -0.4938 C.3       1 RES1    0.0000
     26 H7        15.7485    5.0369    0.1244 H         1 RES1    0.0000
     27 H8        14.8708    5.0543   -1.2261 H         1 RES1    0.0000
     28 C15       16.0369    3.3560   -1.0442 C.3       1 RES1    0.0000
     29 H9        16.4010    2.8255   -0.3052 H         1 RES1    0.0000
     30 H10       16.7725    3.7226   -1.5776 H         1 RES1    0.0000
     31 H11       15.4752    2.7855   -1.6105 H         1 RES1    0.0000
     32 O1A       11.6319    1.9021    4.0755 O.2       1 RES1    0.0000
     33 O2A        8.7541    3.8580    4.9373 O.3       1 RES1    0.0000
     34 O3A        5.9870   -1.9964    4.0132 O.2       1 RES1    0.0000
     35 O4A        5.2339   -0.8561    2.3489 O.2       1 RES1    0.0000
     36 N1A        6.0567   -1.0639    3.2238 N.pl3     1 RES1    0.0000
     37 C1A       10.4876    3.8510    3.3986 C.ar      1 RES1    0.0000
     38 C2A        9.5693    4.5844    4.1356 C.ar      1 RES1    0.0000
     39 C3A        9.5623    5.9954    4.0999 C.ar      1 RES1    0.0000
     40 H1A        8.9185    6.4866    4.5961 H         1 RES1    0.0000
     41 C4A       10.4898    6.6424    3.3469 C.ar      1 RES1    0.0000
     42 H2A       10.4971    7.5928    3.3443 H         1 RES1    0.0000
     43 C7A       10.5788    2.3847    3.6996 C.2       1 RES1    0.0000
     44 C8A        9.3660    1.5170    3.5681 C.ar      1 RES1    0.0000
     45 C9A        8.3536    1.8003    2.6582 C.ar      1 RES1    0.0000
     46 H3A        8.4070    2.5856    2.1254 H         1 RES1    0.0000
     47 C10A       7.2724    0.9515    2.5207 C.ar      1 RES1    0.0000
     48 H4A        6.5875    1.1298    1.8870 H         1 RES1    0.0000
     49 C11A       7.2158   -0.1670    3.3346 C.ar      1 RES1    0.0000
     50 C12A       8.1939   -0.4646    4.2631 C.ar      1 RES1    0.0000
     51 H5A        8.1233   -1.2344    4.8160 H         1 RES1    0.0000
     52 C13A       9.2784    0.3835    4.3685 C.ar      1 RES1    0.0000
     53 H6A        9.9696    0.1917    4.9918 H         1 RES1    0.0000
     54 C14A       7.6707    4.4801    5.6326 C.3       1 RES1    0.0000
     55 H7A        7.1330    5.0369    5.0144 H         1 RES1    0.0000
     56 H8A        8.0108    5.0543    6.3649 H         1 RES1    0.0000
     57 C15A       6.8446    3.3560    6.1829 C.3       1 RES1    0.0000
     58 H9A        6.4805    2.8255    5.4440 H         1 RES1    0.0000
     59 H10A       6.1090    3.7226    6.7164 H         1 RES1    0.0000
     60 H11A       7.4064    2.7855    6.7492 H         1 RES1    0.0000
@<TRIPOS>BOND
     1    1   14 2
     2    2    7 1
     3    3    5 2
     4    4    5 2
     5    5   20 1
     6    6    7 ar
     7    7    8 ar
     8    8    9 1
     9   10    8 ar
    10   11   10 1
    11   12   10 ar
    12   13    6 ar
    13   14    6 1
    14   15   14 1
    15   16   15 ar
    16   17   16 1
    17   18   16 ar
    18   19   18 1
    19   20   18 ar
    20   21   20 ar
    21   22   21 1
    22   23   15 ar
    23   24   23 1
    24   25    2 1
    25   26   25 1
    26   27   25 1
    27   28   25 1
    28   29   28 1
    29   30   28 1
    30   31   28 1
    31   32   43 2
    32   33   38 1
    33   34   36 2
    34   35   36 2
    35   36   49 1
    36   37   13 ar
    37   38   37 ar
    38   39   38 ar
    39   40   39 1
    40   41   12 ar
    41   42   41 1
    42   43   37 1
    43   44   43 1
    44   45   44 ar
    45   46   45 1
    46   47   45 ar
    47   48   47 1
    48   49   47 ar
    49   50   49 ar
    50   51   50 1
    51   52   44 ar
    52   53   52 1
    53   54   33 1
    54   55   54 1
    55   56   54 1
    56   57   54 1
    57   58   57 1
    58   59   57 1
    59   60   57 1
    60   12   13 ar
    61   21   23 ar
    62   39   41 ar
    63   50   52 ar
@<TRIPOS>SUBSTRUCTURE
     1 RES1 1

@<TRIPOS>CRYSIN
  23.5359   10.2522   10.3605  90.0000  97.2570  90.0000  15 1

