# MOL2 file generated by ConQuest
# Please check atom types

@<TRIPOS>MOLECULE
YOHLIS
    39    40     1
SMALL
NO_CHARGES
****
Generated from CSD

@<TRIPOS>ATOM
      1 C1         8.1487    1.1861    6.1001 C.ar      1 RES1    0.0000
      2 C2         8.9400    0.0327    6.0626 C.ar      1 RES1    0.0000
      3 C3        10.2979    0.0787    5.8365 C.ar      1 RES1    0.0000
      4 H1        10.7982   -0.7021    5.7670 H         1 RES1    0.0000
      5 C4        10.8917    1.3134    5.7158 C.ar      1 RES1    0.0000
      6 C5        10.1592    2.4796    5.8043 C.ar      1 RES1    0.0000
      7 H2        10.5854    3.3041    5.7440 H         1 RES1    0.0000
      8 C6         8.7928    2.4175    5.9823 C.ar      1 RES1    0.0000
      9 H3         8.2972    3.2033    6.0234 H         1 RES1    0.0000
     10 C7         5.9832    2.2120    6.0630 C.3       1 RES1    0.0000
     11 H4         6.1337    2.6344    5.2035 H         1 RES1    0.0000
     12 H5         6.1900    2.8522    6.7611 H         1 RES1    0.0000
     13 C8         4.5615    1.7608    6.1763 C.2       1 RES1    0.0000
     14 C9         4.0144    1.7275    7.5586 C.2       1 RES1    0.0000
     15 C10        2.6514    1.1478    7.8049 C.3       1 RES1    0.0000
     16 H6         2.4806    1.1224    8.7492 H         1 RES1    0.0000
     17 H7         2.6134    0.2571    7.4495 H         1 RES1    0.0000
     18 H8         1.9893    1.6929    7.3739 H         1 RES1    0.0000
     19 C11        3.7766    1.4547    5.1276 C.2       1 RES1    0.0000
     20 H9         2.8942    1.2533    5.3415 H         1 RES1    0.0000
     21 C12        4.0991    1.3902    3.7013 C.ar      1 RES1    0.0000
     22 C13        5.3403    0.9900    3.2075 C.ar      1 RES1    0.0000
     23 H10        6.0259    0.7791    3.7987 H         1 RES1    0.0000
     24 C14        5.5589    0.9038    1.8496 C.ar      1 RES1    0.0000
     25 H11        6.3920    0.6390    1.5329 H         1 RES1    0.0000
     26 C15        4.5558    1.2071    0.9576 C.ar      1 RES1    0.0000
     27 H12        4.7132    1.1517    0.0427 H         1 RES1    0.0000
     28 C16        3.3192    1.5928    1.4217 C.ar      1 RES1    0.0000
     29 H13        2.6391    1.7991    0.8215 H         1 RES1    0.0000
     30 C17        3.0911    1.6721    2.7812 C.ar      1 RES1    0.0000
     31 H14        2.2488    1.9184    3.0889 H         1 RES1    0.0000
     32 N1        12.3346    1.3734    5.4757 N.pl3     1 RES1    0.0000
     33 N2         8.3390   -1.2865    6.2440 N.pl3     1 RES1    0.0000
     34 O1         6.8210    1.0284    6.1990 O.3       1 RES1    0.0000
     35 O2         4.6739    2.1538    8.4894 O.2       1 RES1    0.0000
     36 O3        12.9436    0.3233    5.3147 O.2       1 RES1    0.0000
     37 O4        12.8640    2.4765    5.4430 O.2       1 RES1    0.0000
     38 O5         8.7359   -2.1791    5.5135 O.2       1 RES1    0.0000
     39 O6         7.5126   -1.4346    7.1232 O.2       1 RES1    0.0000
@<TRIPOS>BOND
     1    1    2 ar
     2    2    3 ar
     3    3    4 1
     4    5    3 ar
     5    6    5 ar
     6    7    6 1
     7    8    1 ar
     8    9    8 1
     9   10   11 1
    10   12   10 1
    11   13   10 1
    12   14   13 1
    13   15   14 1
    14   16   15 1
    15   17   15 1
    16   18   15 1
    17   19   13 2
    18   20   19 1
    19   21   19 1
    20   22   21 ar
    21   23   22 1
    22   24   22 ar
    23   25   24 1
    24   26   24 ar
    25   27   26 1
    26   28   26 ar
    27   29   28 1
    28   30   21 ar
    29   31   30 1
    30   32    5 1
    31   33    2 1
    32   34    1 1
    33   35   14 2
    34   36   32 2
    35   37   32 2
    36   38   33 2
    37   39   33 2
    38    6    8 ar
    39   10   34 1
    40   28   30 ar
@<TRIPOS>SUBSTRUCTURE
     1 RES1 1

@<TRIPOS>CRYSIN
  12.8459    7.6983   19.4283  90.0000 122.2540  90.0000  14 1

