# MOL2 file generated by ConQuest
# Please check atom types

@<TRIPOS>MOLECULE
YOHPES
    62    65     1
SMALL
NO_CHARGES
****
Generated from CSD

@<TRIPOS>ATOM
      1 O1        -1.8880   -4.8208   -6.5321 O.3       1 RES1    0.0000
      2 O2        -2.8185   -4.9681   -9.3815 O.3       1 RES1    0.0000
      3 N1        -2.0812   -2.9966   -8.6429 N.am      1 RES1    0.0000
      4 N2        -1.8104   -5.4385   -5.1995 N.3       1 RES1    0.0000
      5 O3        -4.3121   -3.3142   -9.1296 O.2       1 RES1    0.0000
      6 C1         0.5902   -5.0618   -6.7911 C.3       1 RES1    0.0000
      7 H1         0.7509   -5.2033   -5.8245 H         1 RES1    0.0000
      8 H2         0.4431   -5.9478   -7.2088 H         1 RES1    0.0000
      9 C2        -0.8926   -3.8764   -8.4654 C.3       1 RES1    0.0000
     10 C3        -3.1705   -3.6966   -9.0451 C.2       1 RES1    0.0000
     11 C4        -2.3555   -6.8209   -5.3797 C.3       1 RES1    0.0000
     12 C5        -2.1904   -1.6546   -8.1322 C.ar      1 RES1    0.0000
     13 C6         0.3601   -3.2569   -9.0649 C.3       1 RES1    0.0000
     14 H3         0.5388   -2.3888   -8.6243 H         1 RES1    0.0000
     15 H4         0.2112   -3.0848  -10.0289 H         1 RES1    0.0000
     16 C7        -1.4810   -0.6246   -8.7148 C.ar      1 RES1    0.0000
     17 H5        -0.9215   -0.7980   -9.4630 H         1 RES1    0.0000
     18 C8        -1.3817   -5.0810   -9.2809 C.3       1 RES1    0.0000
     19 H6        -0.9729   -5.0746  -10.1818 H         1 RES1    0.0000
     20 H7        -1.1344   -5.9248   -8.8289 H         1 RES1    0.0000
     21 C9        -1.3799   -7.6393   -6.2027 C.3       1 RES1    0.0000
     22 H8        -1.3899   -7.3244   -7.1313 H         1 RES1    0.0000
     23 H9        -1.6416   -8.5838   -6.1747 H         1 RES1    0.0000
     24 H10       -0.4774   -7.5399   -5.8337 H         1 RES1    0.0000
     25 C10       -0.6534   -4.2078   -6.9736 C.3       1 RES1    0.0000
     26 H11       -0.5271   -3.3512   -6.4733 H         1 RES1    0.0000
     27 C11        1.5731   -4.1632   -8.8980 C.3       1 RES1    0.0000
     28 H12        2.3700   -3.7361   -9.3008 H         1 RES1    0.0000
     29 H13        1.4151   -5.0236   -9.3616 H         1 RES1    0.0000
     30 C12        1.8149   -4.4130   -7.4126 C.3       1 RES1    0.0000
     31 H14        2.6010   -5.0045   -7.2972 H         1 RES1    0.0000
     32 H15        2.0054   -3.5539   -6.9562 H         1 RES1    0.0000
     33 C13       -3.7273   -6.9127   -6.0582 C.3       1 RES1    0.0000
     34 H16       -4.4250   -6.6501   -5.4227 H         1 RES1    0.0000
     35 H17       -3.8844   -7.8343   -6.3517 H         1 RES1    0.0000
     36 H18       -3.7490   -6.3149   -6.8346 H         1 RES1    0.0000
     37 C14       -3.1551   -6.6552   -2.9499 C.3       1 RES1    0.0000
     38 H19       -3.0784   -7.0873   -2.0625 H         1 RES1    0.0000
     39 H20       -4.1145   -6.6055   -3.1887 H         1 RES1    0.0000
     40 C15       -2.5586   -4.5405   -4.2536 C.3       1 RES1    0.0000
     41 C16       -2.4178   -7.4646   -3.9747 C.3       1 RES1    0.0000
     42 H21       -2.8537   -8.3506   -4.0514 H         1 RES1    0.0000
     43 H22       -1.4927   -7.6138   -3.6551 H         1 RES1    0.0000
     44 C17       -3.0396   -1.3818   -7.0819 C.ar      1 RES1    0.0000
     45 H23       -3.5504   -2.0841   -6.6945 H         1 RES1    0.0000
     46 C18       -3.9692   -4.1440   -4.6854 C.3       1 RES1    0.0000
     47 H24       -3.9972   -4.0446   -5.6586 H         1 RES1    0.0000
     48 H25       -4.2129   -3.2951   -4.2615 H         1 RES1    0.0000
     49 H26       -4.6018   -4.8400   -4.4089 H         1 RES1    0.0000
     50 C19       -2.5667   -5.2607   -2.8959 C.3       1 RES1    0.0000
     51 H27       -1.6371   -5.3180   -2.5602 H         1 RES1    0.0000
     52 H28       -3.0866   -4.7189   -2.2505 H         1 RES1    0.0000
     53 C20       -1.7184   -3.2671   -4.0895 C.3       1 RES1    0.0000
     54 H29       -0.7780   -3.5105   -3.9592 H         1 RES1    0.0000
     55 H30       -2.0369   -2.7635   -3.3122 H         1 RES1    0.0000
     56 H31       -1.8032   -2.7138   -4.8937 H         1 RES1    0.0000
     57 C21       -2.4160    0.9203   -7.1424 C.ar      1 RES1    0.0000
     58 H32       -2.4792    1.7999   -6.7885 H         1 RES1    0.0000
     59 C22       -3.1560   -0.0943   -6.5858 C.ar      1 RES1    0.0000
     60 H33       -3.7445    0.0867   -5.8632 H         1 RES1    0.0000
     61 C23       -1.5848    0.6705   -8.2096 C.ar      1 RES1    0.0000
     62 H34       -1.0830    1.3767   -8.6004 H         1 RES1    0.0000
@<TRIPOS>BOND
     1    1    4 1
     2    2   10 1
     3    3    9 1
     4    4   11 1
     5    5   10 2
     6    6    7 1
     7    8    6 1
     8    9   13 1
     9   10    3 1
    10   11   21 1
    11   12    3 1
    12   13   14 1
    13   15   13 1
    14   16   12 ar
    15   17   16 1
    16   18    2 1
    17   19   18 1
    18   20   18 1
    19   21   22 1
    20   23   21 1
    21   24   21 1
    22   25    1 1
    23   26   25 1
    24   27   13 1
    25   28   27 1
    26   29   27 1
    27   30    6 1
    28   31   30 1
    29   32   30 1
    30   33   11 1
    31   34   33 1
    32   35   33 1
    33   36   33 1
    34   37   38 1
    35   39   37 1
    36   40    4 1
    37   41   11 1
    38   42   41 1
    39   43   41 1
    40   44   12 ar
    41   45   44 1
    42   46   40 1
    43   47   46 1
    44   48   46 1
    45   49   46 1
    46   50   37 1
    47   51   50 1
    48   52   50 1
    49   53   40 1
    50   54   53 1
    51   55   53 1
    52   56   53 1
    53   57   58 1
    54   59   44 ar
    55   60   59 1
    56   61   16 ar
    57   62   61 1
    58    6   25 1
    59    9   18 1
    60    9   25 1
    61   27   30 1
    62   37   41 1
    63   40   50 1
    64   57   59 ar
    65   57   61 ar
@<TRIPOS>SUBSTRUCTURE
     1 RES1 1

@<TRIPOS>CRYSIN
   9.0250   12.7470   18.4320  90.0000  90.0000  90.0000  33 6

