# MOL2 file generated by ConQuest
# Please check atom types

@<TRIPOS>MOLECULE
YOJPUK
    78    81     1
SMALL
NO_CHARGES
****
Generated from CSD

@<TRIPOS>ATOM
      1 O1         9.9810    0.2039   13.6886 O.2       1 RES1    0.0000
      2 N1        10.4182    1.8086   12.1496 N.am      1 RES1    0.0000
      3 C1         9.9743    2.8544   11.3315 C.2       1 RES1    0.0000
      4 O2         6.5647    2.8753   12.3170 O.2       1 RES1    0.0000
      5 C2         7.7535    2.6495   12.3618 C.2       1 RES1    0.0000
      6 N2         8.5884    3.0844   11.3238 N.am      1 RES1    0.0000
      7 O3        11.1840    5.0675    8.9530 O.2       1 RES1    0.0000
      8 N3        10.3771    4.2891    9.4828 N.2       1 RES1    0.0000
      9 C3         8.3994    1.9952   13.5514 C.3       1 RES1    0.0000
     10 O4        11.7170    4.8824   12.8539 O.3       1 RES1    0.0000
     11 C4         9.6407    1.2376   13.1524 C.2       1 RES1    0.0000
     12 O5        12.8036    2.6073    8.9309 O.3       1 RES1    0.0000
     13 C5         7.3996    1.0669   14.2388 C.3       1 RES1    0.0000
     14 H1         7.1821    0.3400   13.6507 H         1 RES1    0.0000
     15 H2         6.6028    1.5573   14.4506 H         1 RES1    0.0000
     16 H3         7.7860    0.7210   15.0467 H         1 RES1    0.0000
     17 C6         8.8360    3.1121   14.5218 C.3       1 RES1    0.0000
     18 H4         9.4564    3.6952   14.0800 H         1 RES1    0.0000
     19 H5         9.2565    2.7211   15.2907 H         1 RES1    0.0000
     20 H6         8.0666    3.6150   14.7981 H         1 RES1    0.0000
     21 C7        11.6514    1.0926   11.8388 C.ar      1 RES1    0.0000
     22 C8        11.6893    0.2833   10.7019 C.ar      1 RES1    0.0000
     23 C9        12.8799   -0.3869   10.4243 C.ar      1 RES1    0.0000
     24 H7        12.9206   -0.9432    9.6806 H         1 RES1    0.0000
     25 C10       14.0013   -0.2517   11.2177 C.ar      1 RES1    0.0000
     26 C11       13.8916    0.4966   12.3778 C.ar      1 RES1    0.0000
     27 H8        14.6291    0.5598   12.9404 H         1 RES1    0.0000
     28 C12       12.7214    1.1582   12.7373 C.ar      1 RES1    0.0000
     29 C13       12.6237    1.8673   14.0499 C.3       1 RES1    0.0000
     30 H9        13.4841    2.2181   14.2885 H         1 RES1    0.0000
     31 H10       12.3301    1.2515   14.7255 H         1 RES1    0.0000
     32 H11       11.9933    2.5883   13.9781 H         1 RES1    0.0000
     33 C14       15.3188   -0.8647   10.8214 C.3       1 RES1    0.0000
     34 H12       15.1634   -1.6024   10.2272 H         1 RES1    0.0000
     35 H13       15.7763   -1.1772   11.6062 H         1 RES1    0.0000
     36 H14       15.8571   -0.2055   10.3786 H         1 RES1    0.0000
     37 C15       10.5194    0.1262    9.7847 C.3       1 RES1    0.0000
     38 H15        9.7056    0.1846   10.2905 H         1 RES1    0.0000
     39 H16       10.5654   -0.7294    9.3517 H         1 RES1    0.0000
     40 H17       10.5363    0.8213    9.1231 H         1 RES1    0.0000
     41 C16        7.9463    4.0068   10.3932 C.ar      1 RES1    0.0000
     42 C17        7.3747    3.4989    9.2339 C.ar      1 RES1    0.0000
     43 C18        6.7874    4.4096    8.3574 C.ar      1 RES1    0.0000
     44 H18        6.4053    4.0963    7.5697 H         1 RES1    0.0000
     45 C19        6.7548    5.7705    8.6273 C.ar      1 RES1    0.0000
     46 C20        7.2804    6.2167    9.8165 C.ar      1 RES1    0.0000
     47 H19        7.2337    7.1240   10.0157 H         1 RES1    0.0000
     48 C21        7.8778    5.3595   10.7311 C.ar      1 RES1    0.0000
     49 C22        8.4425    5.8826   12.0148 C.3       1 RES1    0.0000
     50 H20        8.3495    6.8382   12.0386 H         1 RES1    0.0000
     51 H21        9.3710    5.6494   12.0741 H         1 RES1    0.0000
     52 H22        7.9679    5.4965   12.7535 H         1 RES1    0.0000
     53 C23        6.1606    6.7530    7.6455 C.3       1 RES1    0.0000
     54 H23        5.8889    6.2877    6.8516 H         1 RES1    0.0000
     55 H24        6.8161    7.4164    7.4199 H         1 RES1    0.0000
     56 H25        5.3972    7.1799    8.0422 H         1 RES1    0.0000
     57 C24        7.4014    2.0360    8.9187 C.3       1 RES1    0.0000
     58 H26        7.0563    1.5423    9.6651 H         1 RES1    0.0000
     59 H27        8.3046    1.7628    8.7448 H         1 RES1    0.0000
     60 H28        6.8610    1.8664    8.1441 H         1 RES1    0.0000
     61 C25       10.8793    3.5972   10.5887 C.2       1 RES1    0.0000
     62 C26       12.3164    3.7118   10.9214 C.ar      1 RES1    0.0000
     63 C27       13.2917    3.2308   10.0384 C.ar      1 RES1    0.0000
     64 C28       14.6387    3.3792   10.3199 C.ar      1 RES1    0.0000
     65 H29       15.2824    3.0411    9.7393 H         1 RES1    0.0000
     66 C29       15.0139    4.0361   11.4754 C.ar      1 RES1    0.0000
     67 H30       15.9178    4.1297   11.6711 H         1 RES1    0.0000
     68 C30       14.0779    4.5583   12.3460 C.ar      1 RES1    0.0000
     69 H31       14.3484    5.0077   13.1149 H         1 RES1    0.0000
     70 C31       12.7257    4.4024   12.0582 C.ar      1 RES1    0.0000
     71 C32       12.0950    5.6703   13.9883 C.3       1 RES1    0.0000
     72 H32       11.3063    5.9852   14.4367 H         1 RES1    0.0000
     73 H33       12.6175    6.4205   13.6971 H         1 RES1    0.0000
     74 H34       12.6130    5.1339   14.5927 H         1 RES1    0.0000
     75 C33       13.7488    1.9023    8.1355 C.3       1 RES1    0.0000
     76 H35       13.2887    1.4161    7.4477 H         1 RES1    0.0000
     77 H36       14.2384    1.2883    8.6892 H         1 RES1    0.0000
     78 H37       14.3574    2.5256    7.7334 H         1 RES1    0.0000
@<TRIPOS>BOND
     1    1   11 2
     2    2    3 1
     3    3    6 1
     4    4    5 2
     5    5    6 1
     6    6   41 1
     7    7    8 2
     8    8   61 1
     9    9    5 1
    10   10   70 1
    11   11    2 1
    12   12   63 1
    13   13    9 1
    14   14   13 1
    15   15   13 1
    16   16   13 1
    17   17    9 1
    18   18   17 1
    19   19   17 1
    20   20   17 1
    21   21    2 1
    22   22   21 ar
    23   23   22 ar
    24   24   23 1
    25   25   23 ar
    26   26   25 ar
    27   27   26 1
    28   28   21 ar
    29   29   28 1
    30   30   29 1
    31   31   29 1
    32   32   29 1
    33   33   25 1
    34   34   33 1
    35   35   33 1
    36   36   33 1
    37   37   22 1
    38   38   37 1
    39   39   37 1
    40   40   37 1
    41   41   42 ar
    42   42   43 ar
    43   43   44 1
    44   45   43 ar
    45   46   45 ar
    46   47   46 1
    47   48   41 ar
    48   49   48 1
    49   50   49 1
    50   51   49 1
    51   52   49 1
    52   53   45 1
    53   54   53 1
    54   55   53 1
    55   56   53 1
    56   57   42 1
    57   58   57 1
    58   59   57 1
    59   60   57 1
    60   61    3 2
    61   62   61 1
    62   63   62 ar
    63   64   63 ar
    64   65   64 1
    65   66   64 ar
    66   67   66 1
    67   68   66 ar
    68   69   68 1
    69   70   62 ar
    70   71   10 1
    71   72   71 1
    72   73   71 1
    73   74   71 1
    74   75   12 1
    75   76   75 1
    76   77   75 1
    77   78   75 1
    78    9   11 1
    79   26   28 ar
    80   46   48 ar
    81   68   70 ar
@<TRIPOS>SUBSTRUCTURE
     1 RES1 1

@<TRIPOS>CRYSIN
  22.4510    8.3546   15.4420  90.0000  90.0000  90.0000  29 1

