# MOL2 file generated by ConQuest
# Please check atom types

@<TRIPOS>MOLECULE
YOJQOF
    62    64     1
SMALL
NO_CHARGES
****
Generated from CSD

@<TRIPOS>ATOM
      1 C1         6.4795   13.9655   20.2535 C.3       1 RES1    0.0000
      2 H1         5.8756   14.4227   20.8775 H         1 RES1    0.0000
      3 C2         6.9464   12.7436   21.0548 C.2       1 RES1    0.0000
      4 C3         8.1777   12.0882   20.7211 C.2       1 RES1    0.0000
      5 C4         7.9252   10.6099   22.6512 C.2       1 RES1    0.0000
      6 C5         6.3122   12.3810   22.2139 C.2       1 RES1    0.0000
      7 C6         4.1226   13.1102   22.2552 C.2       1 RES1    0.0000
      8 H2         3.9924   12.6702   21.4478 H         1 RES1    0.0000
      9 C7         3.3259   14.5887   23.9614 C.3       1 RES1    0.0000
     10 H3         3.6763   14.0408   24.6672 H         1 RES1    0.0000
     11 H4         2.4959   14.9812   24.2436 H         1 RES1    0.0000
     12 H5         3.9543   15.2846   23.7548 H         1 RES1    0.0000
     13 C8         1.8489   13.8823   22.0917 C.3       1 RES1    0.0000
     14 H6         1.7138   14.7910   21.8127 H         1 RES1    0.0000
     15 H7         1.1354   13.6197   22.6762 H         1 RES1    0.0000
     16 H8         1.8607   13.3087   21.3240 H         1 RES1    0.0000
     17 C9         9.7721   10.2642   21.1252 C.3       1 RES1    0.0000
     18 H9        10.0746    9.7314   21.8649 H         1 RES1    0.0000
     19 H10       10.4671   10.8710   20.8645 H         1 RES1    0.0000
     20 H11        9.5519    9.6906   20.3855 H         1 RES1    0.0000
     21 C10        6.1135   10.9253   24.2224 C.3       1 RES1    0.0000
     22 H12        5.4283   10.2883   24.0025 H         1 RES1    0.0000
     23 H13        5.7171   11.6921   24.6412 H         1 RES1    0.0000
     24 H14        6.7438   10.5208   24.8236 H         1 RES1    0.0000
     25 C11        7.5983   14.9762   20.0547 C.ar      1 RES1    0.0000
     26 C12        8.3147   15.3910   21.1561 C.ar      1 RES1    0.0000
     27 H15        8.1151   15.0340   21.9920 H         1 RES1    0.0000
     28 C13        9.3268   16.3288   21.0453 C.ar      1 RES1    0.0000
     29 H16        9.7976   16.6099   21.7964 H         1 RES1    0.0000
     30 C14        9.6214   16.8364   19.8019 C.ar      1 RES1    0.0000
     31 C15        8.9040   16.4810   18.7125 C.ar      1 RES1    0.0000
     32 H17        9.0968   16.8574   17.8829 H         1 RES1    0.0000
     33 C16        7.8890   15.5620   18.8331 C.ar      1 RES1    0.0000
     34 H18        7.3898   15.3299   18.0850 H         1 RES1    0.0000
     35 C17        5.5869   13.7021   19.0374 C.2       1 RES1    0.0000
     36 C18        5.9324   12.9866   17.9178 C.2       1 RES1    0.0000
     37 C19        3.7017   13.1653   17.0002 C.2       1 RES1    0.0000
     38 C20        4.2861   14.2903   19.0931 C.2       1 RES1    0.0000
     39 C21        1.9977   14.4348   18.1531 C.3       1 RES1    0.0000
     40 H19        1.7344   14.8136   17.3094 H         1 RES1    0.0000
     41 H20        1.9321   15.1035   18.8377 H         1 RES1    0.0000
     42 H21        1.4202   13.6982   18.3684 H         1 RES1    0.0000
     43 C22        5.3941   12.0816   15.6635 C.3       1 RES1    0.0000
     44 H22        5.4763   11.1412   15.8398 H         1 RES1    0.0000
     45 H23        6.2348   12.4212   15.3478 H         1 RES1    0.0000
     46 H24        4.7197   12.2234   14.9958 H         1 RES1    0.0000
     47 N1         8.5810   11.0253   21.5263 N.am      1 RES1    0.0000
     48 N2         6.8074   11.3404   22.9936 N.am      1 RES1    0.0000
     49 N3         5.2756   13.0476   22.8072 N.2       1 RES1    0.0000
     50 N4         3.1008   13.7776   22.7861 N.3       1 RES1    0.0000
     51 N5        10.7421   17.7608   19.6790 N.pl3     1 RES1    0.0000
     52 N6         3.3915   13.9566   18.0634 N.am      1 RES1    0.0000
     53 N7         5.0172   12.7791   16.8946 N.am      1 RES1    0.0000
     54 N8         7.1490   12.4692   17.7066 N.3       1 RES1    0.0000
     55 H25        7.7696   12.5767   18.2935 H         1 RES1    0.0000
     56 H26        7.3095   12.0287   16.9868 H         1 RES1    0.0000
     57 O1         8.9091   12.4094   19.7729 O.2       1 RES1    0.0000
     58 O2         8.2991    9.6565   23.3211 O.2       1 RES1    0.0000
     59 O3         3.8841   15.0331   19.9896 O.2       1 RES1    0.0000
     60 O4         2.8717   12.8367   16.1715 O.2       1 RES1    0.0000
     61 O5        11.0250   18.1720   18.5597 O.2       1 RES1    0.0000
     62 O6        11.3656   18.0677   20.6876 O.2       1 RES1    0.0000
@<TRIPOS>BOND
     1    1    2 1
     2    3    1 1
     3    4    3 1
     4    5   47 1
     5    6    3 2
     6    7    8 1
     7    9   10 1
     8   11    9 1
     9   12    9 1
    10   13   14 1
    11   15   13 1
    12   16   13 1
    13   17   18 1
    14   19   17 1
    15   20   17 1
    16   21   22 1
    17   23   21 1
    18   24   21 1
    19   25    1 1
    20   26   25 ar
    21   27   26 1
    22   28   26 ar
    23   29   28 1
    24   30   28 ar
    25   31   30 ar
    26   32   31 1
    27   33   25 ar
    28   34   33 1
    29   35    1 1
    30   36   35 2
    31   37   52 1
    32   38   35 1
    33   39   40 1
    34   41   39 1
    35   42   39 1
    36   43   44 1
    37   45   43 1
    38   46   43 1
    39   47    4 1
    40   48    5 1
    41   49    6 1
    42   50    7 1
    43   51   30 1
    44   52   38 1
    45   53   36 1
    46   54   36 1
    47   55   54 1
    48   56   54 1
    49   57    4 2
    50   58    5 2
    51   59   38 2
    52   60   37 2
    53   61   51 2
    54   62   51 2
    55    6   48 1
    56    7   49 2
    57    9   50 1
    58   13   50 1
    59   17   47 1
    60   21   48 1
    61   31   33 ar
    62   37   53 1
    63   39   52 1
    64   43   53 1
@<TRIPOS>SUBSTRUCTURE
     1 RES1 1

@<TRIPOS>CRYSIN
   9.7878   15.0944   32.5855  90.0000  90.0000  90.0000  61 1

