# MOL2 file generated by ConQuest
# Please check atom types

@<TRIPOS>MOLECULE
YOKNAO
    45    46     1
SMALL
NO_CHARGES
****
Generated from CSD

@<TRIPOS>ATOM
      1 C1         1.6733    4.5180    4.0533 C.ar      1 RES1    0.0000
      2 C2         1.0402    5.2398    5.0786 C.ar      1 RES1    0.0000
      3 C3         3.2076    5.7937    5.9544 C.ar      1 RES1    0.0000
      4 H1         3.7277    6.2161    6.5994 H         1 RES1    0.0000
      5 C4         3.0686    4.4478    3.9582 C.ar      1 RES1    0.0000
      6 C5         1.8393    5.8631    6.0233 C.ar      1 RES1    0.0000
      7 H2         1.4406    6.3374    6.7170 H         1 RES1    0.0000
      8 C6         3.8105    5.1010    4.9349 C.ar      1 RES1    0.0000
      9 H3         4.7390    5.0677    4.8972 H         1 RES1    0.0000
     10 C7        -0.4690    5.2881    5.1671 C.3       1 RES1    0.0000
     11 H4        -0.8166    5.1185    4.2666 H         1 RES1    0.0000
     12 C8         3.7788    3.7026    2.8488 C.3       1 RES1    0.0000
     13 H5         3.1051    3.4537    2.1819 H         1 RES1    0.0000
     14 C9        -1.0008    6.6399    5.6032 C.3       1 RES1    0.0000
     15 H6        -0.7575    6.8002    6.5182 H         1 RES1    0.0000
     16 H7        -1.9576    6.6507    5.5205 H         1 RES1    0.0000
     17 H8        -0.6244    7.3250    5.0474 H         1 RES1    0.0000
     18 C10        4.4102    2.4190    3.3610 C.3       1 RES1    0.0000
     19 H9         5.0733    2.6298    4.0221 H         1 RES1    0.0000
     20 H10        4.8232    1.9526    2.6311 H         1 RES1    0.0000
     21 H11        3.7325    1.8651    3.7536 H         1 RES1    0.0000
     22 C11       -0.9770    4.1693    6.0560 C.3       1 RES1    0.0000
     23 H12       -0.6150    3.3324    5.7556 H         1 RES1    0.0000
     24 H13       -1.9359    4.1366    6.0139 H         1 RES1    0.0000
     25 H14       -0.7017    4.3312    6.9615 H         1 RES1    0.0000
     26 C12        4.8213    4.5578    2.1471 C.3       1 RES1    0.0000
     27 H15        5.5557    4.7206    2.7435 H         1 RES1    0.0000
     28 H16        4.4269    5.3950    1.8888 H         1 RES1    0.0000
     29 H17        5.1388    4.0999    1.3663 H         1 RES1    0.0000
     30 N1         0.8596    3.9407    3.0343 N.2       1 RES1    0.0000
     31 C13        0.6194    2.7139    3.0621 C.2       1 RES1    0.0000
     32 H18        0.9850    2.2065    3.7500 H         1 RES1    0.0000
     33 C14       -1.8030    0.7520    0.2373 C.ar      1 RES1    0.0000
     34 C15       -0.2147    2.0381    2.0564 C.ar      1 RES1    0.0000
     35 C16       -0.6610    2.7043    0.9223 C.ar      1 RES1    0.0000
     36 H19       -0.4165    3.5892    0.7800 H         1 RES1    0.0000
     37 C17       -1.4616    2.0615    0.0087 C.ar      1 RES1    0.0000
     38 H20       -1.7653    2.5056   -0.7503 H         1 RES1    0.0000
     39 C18       -1.3816    0.0703    1.3438 C.ar      1 RES1    0.0000
     40 H21       -1.6341   -0.8155    1.4817 H         1 RES1    0.0000
     41 C19       -0.5738    0.7229    2.2516 C.ar      1 RES1    0.0000
     42 H22       -0.2681    0.2681    3.0033 H         1 RES1    0.0000
     43 O1        -2.9641    0.6267   -1.7422 O.2       1 RES1    0.0000
     44 O2        -2.9949   -1.0807   -0.4927 O.2       1 RES1    0.0000
     45 N2        -2.6487    0.0494   -0.7358 N.pl3     1 RES1    0.0000
@<TRIPOS>BOND
     1    1    2 ar
     2    2    6 ar
     3    3    4 1
     4    5    1 ar
     5    6    3 ar
     6    7    6 1
     7    8    3 ar
     8    9    8 1
     9   10    2 1
    10   11   10 1
    11   12    5 1
    12   13   12 1
    13   14   10 1
    14   15   14 1
    15   16   14 1
    16   17   14 1
    17   18   12 1
    18   19   18 1
    19   20   18 1
    20   21   18 1
    21   22   10 1
    22   23   22 1
    23   24   22 1
    24   25   22 1
    25   26   12 1
    26   27   26 1
    27   28   26 1
    28   29   26 1
    29   30    1 1
    30   31   30 2
    31   32   31 1
    32   33   37 ar
    33   34   31 1
    34   35   34 ar
    35   36   35 1
    36   37   35 ar
    37   38   37 1
    38   39   33 ar
    39   40   39 1
    40   41   34 ar
    41   42   41 1
    42   43   45 2
    43   44   45 2
    44   45   33 1
    45    5    8 ar
    46   39   41 ar
@<TRIPOS>SUBSTRUCTURE
     1 RES1 1

@<TRIPOS>CRYSIN
   8.4963   28.2166    8.1526  90.0000 117.1220  90.0000  14 1

