# MOL2 file generated by ConQuest
# Please check atom types

@<TRIPOS>MOLECULE
YOKWAX
    52    56     1
SMALL
NO_CHARGES
****
Generated from CSD

@<TRIPOS>ATOM
      1 N1        13.3629    3.6232   13.3765 N.pl3     1 RES1    0.0000
      2 O1        10.6679    8.7977   10.7866 O.3       1 RES1    0.0000
      3 O2        11.6670    8.0067    8.9171 O.2       1 RES1    0.0000
      4 O3        13.3704    3.7734   14.6070 O.2       1 RES1    0.0000
      5 O4        13.7291    2.6017   12.8130 O.2       1 RES1    0.0000
      6 C1        10.1129    9.9098   10.1095 C.2       1 RES1    0.0000
      7 C2        10.4926   11.2696   10.5237 C.3       1 RES1    0.0000
      8 C3        11.6740   11.7892   11.3017 C.3       1 RES1    0.0000
      9 H1        12.0761   12.6217   11.0102 H         1 RES1    0.0000
     10 H2        12.2964   11.1407   11.6645 H         1 RES1    0.0000
     11 C4        10.2856   11.8494   11.9066 C.3       1 RES1    0.0000
     12 H3        10.0848   11.2197   12.6303 H         1 RES1    0.0000
     13 C5         9.4090   13.0965   11.8065 C.3       1 RES1    0.0000
     14 C6         9.9035   14.2466   12.6891 C.3       1 RES1    0.0000
     15 H4         9.8755   13.9778   13.6106 H         1 RES1    0.0000
     16 H5         9.3393   15.0131   12.5627 H         1 RES1    0.0000
     17 H6        10.8052   14.4695   12.4485 H         1 RES1    0.0000
     18 C7         7.9725   12.7137   12.2056 C.3       1 RES1    0.0000
     19 H7         7.9592   12.4378   13.1260 H         1 RES1    0.0000
     20 H8         7.6680   11.9921   11.6512 H         1 RES1    0.0000
     21 H9         7.3951   13.4719   12.0903 H         1 RES1    0.0000
     22 C8         9.4648   13.4721   10.2926 C.3       1 RES1    0.0000
     23 H10        8.6050   13.8150   10.0023 H         1 RES1    0.0000
     24 H11       10.1341   14.1582   10.1431 H         1 RES1    0.0000
     25 C9         9.8231   12.2010    9.5015 C.3       1 RES1    0.0000
     26 H12       10.4715   12.4307    8.8035 H         1 RES1    0.0000
     27 C10        8.6982   11.3089    8.8796 C.3       1 RES1    0.0000
     28 H13        7.8460   11.5216    9.3147 H         1 RES1    0.0000
     29 C11        8.5279   11.4473    7.3447 C.3       1 RES1    0.0000
     30 H14        8.1342   12.3104    7.1413 H         1 RES1    0.0000
     31 H15        9.3994   11.4072    6.9195 H         1 RES1    0.0000
     32 C12        7.6331   10.3353    6.7814 C.3       1 RES1    0.0000
     33 H16        6.7402   10.4250    7.1502 H         1 RES1    0.0000
     34 H17        7.5699   10.4320    5.8184 H         1 RES1    0.0000
     35 C13        8.1790    8.9427    7.1140 C.3       1 RES1    0.0000
     36 H18        9.0431    8.8272    6.6889 H         1 RES1    0.0000
     37 H19        7.5782    8.2694    6.7576 H         1 RES1    0.0000
     38 C14        8.3292    8.7355    8.6392 C.3       1 RES1    0.0000
     39 H20        7.4523    8.6763    9.0486 H         1 RES1    0.0000
     40 H21        8.8000    7.9051    8.8113 H         1 RES1    0.0000
     41 C15        9.0948    9.8878    9.2409 C.2       1 RES1    0.0000
     42 C16       11.4335    7.9179   10.0963 C.2       1 RES1    0.0000
     43 C17       11.9230    6.8148   10.9866 C.ar      1 RES1    0.0000
     44 C18       11.9592    6.9523   12.3813 C.ar      1 RES1    0.0000
     45 H22       11.6548    7.7365   12.7789 H         1 RES1    0.0000
     46 C19       12.4510    5.9144   13.1716 C.ar      1 RES1    0.0000
     47 H23       12.4927    5.9984   14.0974 H         1 RES1    0.0000
     48 C20       12.8764    4.7502   12.5395 C.ar      1 RES1    0.0000
     49 C21       12.8534    4.5904   11.1534 C.ar      1 RES1    0.0000
     50 H24       13.1464    3.8004   10.7585 H         1 RES1    0.0000
     51 C22       12.3842    5.6359   10.3827 C.ar      1 RES1    0.0000
     52 H25       12.3732    5.5574    9.4567 H         1 RES1    0.0000
@<TRIPOS>BOND
     1    1    4 2
     2    2    6 1
     3    3   42 2
     4    5    1 2
     5    6    7 1
     6    7    8 1
     7    8    9 1
     8   10    8 1
     9   11    7 1
    10   12   11 1
    11   13   11 1
    12   14   13 1
    13   15   14 1
    14   16   14 1
    15   17   14 1
    16   18   13 1
    17   19   18 1
    18   20   18 1
    19   21   18 1
    20   22   13 1
    21   23   22 1
    22   24   22 1
    23   25    7 1
    24   26   25 1
    25   27   25 1
    26   28   27 1
    27   29   27 1
    28   30   29 1
    29   31   29 1
    30   32   29 1
    31   33   32 1
    32   34   32 1
    33   35   32 1
    34   36   35 1
    35   37   35 1
    36   38   35 1
    37   39   38 1
    38   40   38 1
    39   41    6 2
    40   42    2 1
    41   43   42 1
    42   44   43 ar
    43   45   44 1
    44   46   44 ar
    45   47   46 1
    46   48    1 1
    47   49   48 ar
    48   50   49 1
    49   51   43 ar
    50   52   51 1
    51    8   11 1
    52   22   25 1
    53   27   41 1
    54   38   41 1
    55   46   48 ar
    56   49   51 ar
@<TRIPOS>SUBSTRUCTURE
     1 RES1 1

@<TRIPOS>CRYSIN
  15.5110   11.7916   11.1730  90.0000  97.0310  90.0000  14 1

