# MOL2 file generated by ConQuest
# Please check atom types

@<TRIPOS>MOLECULE
YOLXEC
    11    11     1
SMALL
NO_CHARGES
****
Generated from CSD

@<TRIPOS>ATOM
      1 C1        10.2217    2.7639    4.6001 C.3       1 RES1    0.0000
      2 C2        10.6892    3.3339    3.4535 C.3       1 RES1    0.0000
      3 C3         9.5452    3.8123    2.7769 C.3       1 RES1    0.0000
      4 C4         8.1931    3.3737    2.6541 C.3       1 RES1    0.0000
      5 C5         7.3064    3.4675    3.8801 C.3       1 RES1    0.0000
      6 C6         7.7469    2.9809    5.1084 C.3       1 RES1    0.0000
      7 C7         9.1820    3.1347    5.5490 C.3       1 RES1    0.0000
      8 N1        11.3718    2.4629    5.3878 N.3       1 RES1    0.0000
      9 N2        11.6584    3.9821    3.8871 N.3       1 RES1    0.0000
     10 O1        11.0263    1.6682    6.0107 O.3       1 RES1    0.0000
     11 O2        12.9632    3.5901    4.0215 O.3       1 RES1    0.0000
@<TRIPOS>BOND
     1    1    2 1
     2    2    3 1
     3    3    4 1
     4    4    5 1
     5    5    6 1
     6    6    7 1
     7    7    1 1
     8    8    1 1
     9    9    2 1
    10   10    8 1
    11   11    9 1
@<TRIPOS>SUBSTRUCTURE
     1 RES1 1

@<TRIPOS>CRYSIN
  13.1820    3.4240   11.7450  90.0000  95.6900  90.0000  14 1

