# MOL2 file generated by ConQuest
# Please check atom types

@<TRIPOS>MOLECULE
YOLXAY
    10    10     1
SMALL
NO_CHARGES
****
Generated from CSD

@<TRIPOS>ATOM
      1 C1         2.4976    1.5893   -0.2686 C.3       1 RES1    0.0000
      2 C2         2.1363    0.9313    1.0628 C.3       1 RES1    0.0000
      3 C3         3.4059    0.8455    1.9243 C.3       1 RES1    0.0000
      4 C4         4.1290    2.1812    2.0847 C.3       1 RES1    0.0000
      5 C5         4.4108    2.8425    0.7499 C.3       1 RES1    0.0000
      6 C6         3.1247    2.9623   -0.0671 C.3       1 RES1    0.0000
      7 N1         1.3703    1.6712   -1.2165 N.3       1 RES1    0.0000
      8 N2         1.1157    1.6429    1.8389 N.3       1 RES1    0.0000
      9 O1         1.9228    1.4498   -2.5433 O.3       1 RES1    0.0000
     10 O2        -0.1594    1.4639    1.1630 O.3       1 RES1    0.0000
@<TRIPOS>BOND
     1    1    2 1
     2    2    3 1
     3    3    4 1
     4    4    5 1
     5    5    6 1
     6    6    1 1
     7    7    1 1
     8    8    2 1
     9    9    7 1
    10   10    8 1
@<TRIPOS>SUBSTRUCTURE
     1 RES1 1

@<TRIPOS>CRYSIN
  22.8180    5.6478   11.4550  90.0000  96.5860  90.0000  15 1

