# MOL2 file generated by ConQuest
# Please check atom types

@<TRIPOS>MOLECULE
YOLYIJ
    49    53     1
SMALL
NO_CHARGES
****
Generated from CSD

@<TRIPOS>ATOM
      1 O1         4.4722    4.1851    2.7927 O.2       1 RES1    0.0000
      2 O2         9.0630    6.8996    2.8146 O.2       1 RES1    0.0000
      3 C1         8.6833    3.8332    2.2663 C.ar      1 RES1    0.0000
      4 C2         6.6839    5.5022    5.0742 C.ar      1 RES1    0.0000
      5 N1         8.3350    7.0632    4.9860 N.am      1 RES1    0.0000
      6 C3         4.2553    6.4865    2.3502 C.ar      1 RES1    0.0000
      7 C4        11.2021    3.2131    1.3592 C.ar      1 RES1    0.0000
      8 C5         7.2694    5.4894    3.7180 C.3       1 RES1    0.0000
      9 C6         6.5125    5.3179    2.3866 C.3       1 RES1    0.0000
     10 H1         6.8576    5.8316    1.6262 H         1 RES1    0.0000
     11 O3        13.1716    2.0194    1.4347 O.2       1 RES1    0.0000
     12 C7         5.0208    5.2347    2.5023 C.2       1 RES1    0.0000
     13 C8         7.3706    6.4691    5.8070 C.ar      1 RES1    0.0000
     14 C9         2.7564    8.8319    2.2649 C.ar      1 RES1    0.0000
     15 C10        8.3516    6.5435    3.7365 C.2       1 RES1    0.0000
     16 N2        12.5730    2.9495    0.9209 N.pl3     1 RES1    0.0000
     17 O4         2.1315   10.0349    2.2395 O.3       1 RES1    0.0000
     18 C11        2.8786    6.4711    2.5700 C.ar      1 RES1    0.0000
     19 H2         2.4579    5.6609    2.7482 H         1 RES1    0.0000
     20 C12        5.7262    4.7299    5.7074 C.ar      1 RES1    0.0000
     21 H3         5.2695    4.0651    5.2444 H         1 RES1    0.0000
     22 C13        4.8570    7.7119    2.0626 C.ar      1 RES1    0.0000
     23 H4         5.7728    7.7460    1.9027 H         1 RES1    0.0000
     24 C14        7.3764    4.2137    2.8732 C.3       1 RES1    0.0000
     25 H5         6.8769    3.4549    3.2401 H         1 RES1    0.0000
     26 C15        2.1256    7.6224    2.5296 C.ar      1 RES1    0.0000
     27 H6         1.2085    7.5912    2.6765 H         1 RES1    0.0000
     28 C16       10.7958    2.7241    2.5763 C.ar      1 RES1    0.0000
     29 H7        11.3628    2.1936    3.0878 H         1 RES1    0.0000
     30 C17        4.1212    8.8670    2.0116 C.ar      1 RES1    0.0000
     31 H8         4.5354    9.6741    1.8082 H         1 RES1    0.0000
     32 C18        7.1150    6.7131    7.1340 C.ar      1 RES1    0.0000
     33 H9         7.5803    7.3674    7.6040 H         1 RES1    0.0000
     34 C19        9.1009    4.2490    1.0195 C.ar      1 RES1    0.0000
     35 H10        8.5194    4.7376    0.4814 H         1 RES1    0.0000
     36 C20        9.5328    3.0367    3.0223 C.ar      1 RES1    0.0000
     37 H11        9.2434    2.7090    3.8440 H         1 RES1    0.0000
     38 O5        13.0514    3.6726    0.0658 O.2       1 RES1    0.0000
     39 C21        6.1375    5.9472    7.7453 C.ar      1 RES1    0.0000
     40 H12        5.9327    6.0949    8.6403 H         1 RES1    0.0000
     41 C22        5.4632    4.9681    7.0447 C.ar      1 RES1    0.0000
     42 H13        4.8187    4.4584    7.4797 H         1 RES1    0.0000
     43 C23       10.3678    3.9529    0.5552 C.ar      1 RES1    0.0000
     44 H14       10.6498    4.2471   -0.2818 H         1 RES1    0.0000
     45 C24        0.7490   10.0730    2.5102 C.3       1 RES1    0.0000
     46 H15        0.2888    9.4910    1.9010 H         1 RES1    0.0000
     47 H16        0.4260   10.9704    2.4016 H         1 RES1    0.0000
     48 H17        0.5913    9.7826    3.4116 H         1 RES1    0.0000
     49 H18        8.8230    7.7065    5.2339 H         1 RES1    0.0000
@<TRIPOS>BOND
     1    1   12 2
     2    2   15 2
     3    3   24 1
     4    4    8 1
     5    5   13 1
     6    6   12 1
     7    7   16 1
     8    8    9 1
     9    9   10 1
    10   11   16 2
    11   12    9 1
    12   13    4 ar
    13   14   17 1
    14   15    5 1
    15   16   38 2
    16   17   45 1
    17   18    6 ar
    18   19   18 1
    19   20    4 ar
    20   21   20 1
    21   22    6 ar
    22   23   22 1
    23   24    8 1
    24   25   24 1
    25   26   14 ar
    26   27   26 1
    27   28    7 ar
    28   29   28 1
    29   30   14 ar
    30   31   30 1
    31   32   13 ar
    32   33   32 1
    33   34    3 ar
    34   35   34 1
    35   36    3 ar
    36   37   36 1
    37   39   32 ar
    38   40   39 1
    39   41   20 ar
    40   42   41 1
    41   43    7 ar
    42   44   43 1
    43   45   46 1
    44   47   45 1
    45   48   45 1
    46   49    5 1
    47    8   15 1
    48    9   24 1
    49   18   26 ar
    50   22   30 ar
    51   28   36 ar
    52   34   43 ar
    53   39   41 ar
@<TRIPOS>SUBSTRUCTURE
     1 RES1 1

@<TRIPOS>CRYSIN
  10.2802   11.3015   18.0590  90.0000 104.2340  90.0000 231 1

