# MOL2 file generated by ConQuest
# Please check atom types

@<TRIPOS>MOLECULE
YOMWAA
    27    28     1
SMALL
USER_CHARGES
****
Generated from CSD

@<TRIPOS>ATOM
      1 O1         0.5709   -0.8752    1.1552 O.3       1 RES1    0.0000
      2 N1         0.1750    0.2646    1.8168 N.2       1 RES1    0.0000
      3 N2         1.2107    1.0667    1.7019 N.pl3     1 RES1    1.0000
      4 C1         2.2477    0.5643    1.0156 C.2       1 RES1    0.0000
      5 H1         3.0707    1.0003    0.8276 H         1 RES1    0.0000
      6 C2         1.8770   -0.7337    0.6295 C.2       1 RES1    0.0000
      7 O2         2.3924   -1.6573    0.0234 O.2       1 RES1   -1.0000
      8 C3         1.1330    2.3523    2.3739 C.ar      1 RES1    0.0000
      9 C4         1.2228    3.5185    1.6082 C.ar      1 RES1    0.0000
     10 C5         1.1201    4.7302    2.2911 C.ar      1 RES1    0.0000
     11 H2         1.1826    5.5420    1.8009 H         1 RES1    0.0000
     12 C6         0.9287    4.7863    3.6674 C.ar      1 RES1    0.0000
     13 C7         0.8681    3.5903    4.3830 C.ar      1 RES1    0.0000
     14 H3         0.7472    3.6244    5.3244 H         1 RES1    0.0000
     15 C8         0.9783    2.3525    3.7659 C.ar      1 RES1    0.0000
     16 C9         0.9505    1.0911    4.5936 C.3       1 RES1    0.0000
     17 H4         1.0702    1.3185    5.5390 H         1 RES1    0.0000
     18 H5         1.6742    0.4966    4.3062 H         1 RES1    0.0000
     19 H6         0.0892    0.6397    4.4728 H         1 RES1    0.0000
     20 C10        0.7812    6.1051    4.3837 C.3       1 RES1    0.0000
     21 H7        -0.1218    6.1750    4.7572 H         1 RES1    0.0000
     22 H8         0.9298    6.8389    3.7506 H         1 RES1    0.0000
     23 H9         1.4399    6.1591    5.1074 H         1 RES1    0.0000
     24 C11        1.4298    3.5133    0.1135 C.3       1 RES1    0.0000
     25 H10        1.2283    4.4019   -0.2472 H         1 RES1    0.0000
     26 H11        0.8348    2.8507   -0.2960 H         1 RES1    0.0000
     27 H12        2.3616    3.2829   -0.0860 H         1 RES1    0.0000
@<TRIPOS>BOND
     1    1    2 1
     2    2    3 2
     3    3    4 1
     4    4    5 1
     5    6    1 1
     6    7    6 1
     7    8    3 1
     8    9    8 ar
     9   10    9 ar
    10   11   10 1
    11   12   10 ar
    12   13   12 ar
    13   14   13 1
    14   15    8 ar
    15   16   15 1
    16   17   16 1
    17   18   16 1
    18   19   16 1
    19   20   12 1
    20   21   20 1
    21   22   20 1
    22   23   20 1
    23   24    9 1
    24   25   24 1
    25   26   24 1
    26   27   24 1
    27    4    6 2
    28   13   15 ar
@<TRIPOS>SUBSTRUCTURE
     1 RES1 1

@<TRIPOS>CRYSIN
   7.4230    8.9340    9.0010 118.7700  97.7100  93.6200   2 1

