# MOL2 file generated by ConQuest
# Please check atom types

@<TRIPOS>MOLECULE
YOMYOO
    35    36     1
SMALL
USER_CHARGES
****
Generated from CSD

@<TRIPOS>ATOM
      1 O1        18.0746   -0.5737    7.8774 O.3       1 RES1    0.0000
      2 O2        18.3538    3.4640    5.3923 O.2       1 RES1    0.0000
      3 O3        22.7641    2.5003    4.3993 O.2       1 RES1   -1.0000
      4 N1        19.5364    3.5206    4.8822 N.3       1 RES1    0.0000
      5 N2        21.6281    3.0940    4.4600 N.pl3     1 RES1    1.0000
      6 C1        19.2389   -0.0283    7.4094 C.ar      1 RES1    0.0000
      7 C2        19.2550    0.9837    6.4646 C.ar      1 RES1    0.0000
      8 C3        20.4813    1.4942    6.0263 C.ar      1 RES1    0.0000
      9 C4        21.6630    0.9612    6.5364 C.ar      1 RES1    0.0000
     10 C5        21.6145   -0.0200    7.4898 C.ar      1 RES1    0.0000
     11 C6        20.4291   -0.5130    7.9344 C.ar      1 RES1    0.0000
     12 C7        20.5321    2.6541    5.1286 C.2       1 RES1    0.0000
     13 C8        19.9160    4.6190    3.9288 C.3       1 RES1    0.0000
     14 C9        19.2055    4.2689    2.6250 C.3       1 RES1    0.0000
     15 C10       19.4720    5.9361    4.4773 C.3       1 RES1    0.0000
     16 C11       21.4502    4.4277    3.8582 C.3       1 RES1    0.0000
     17 C12       22.2378    5.3607    4.8079 C.3       1 RES1    0.0000
     18 C13       22.0790    4.4261    2.4813 C.3       1 RES1    0.0000
     19 H1        19.6443    4.6897    1.8944 H         1 RES1    0.0000
     20 H2        18.3049    4.5649    2.6621 H         1 RES1    0.0000
     21 H3        19.2269    3.3260    2.5012 H         1 RES1    0.0000
     22 H4        18.5237    5.9203    4.6061 H         1 RES1    0.0000
     23 H5        19.7058    6.6271    3.8632 H         1 RES1    0.0000
     24 H6        19.9100    6.0949    5.3119 H         1 RES1    0.0000
     25 H7        22.4937    4.8809    5.5843 H         1 RES1    0.0000
     26 H8        23.0058    5.6791    4.3584 H         1 RES1    0.0000
     27 H9        21.6868    6.0949    5.0518 H         1 RES1    0.0000
     28 H10       21.4169    4.2573    1.8325 H         1 RES1    0.0000
     29 H11       22.4882    5.2717    2.3154 H         1 RES1    0.0000
     30 H12       22.7551    3.7501    2.4392 H         1 RES1    0.0000
     31 H13       18.4385    1.3387    6.1043 H         1 RES1    0.0000
     32 H14       22.5210    1.2971    6.2157 H         1 RES1    0.0000
     33 H15       22.4235   -0.3742    7.8502 H         1 RES1    0.0000
     34 H16       20.4138   -1.1641    8.5931 H         1 RES1    0.0000
     35 H17       17.2153   -0.1497    7.4539 H         1 RES1    0.0000
@<TRIPOS>BOND
     1    1    6 1
     2    2    4 1
     3    3    5 1
     4    4   12 1
     5    5   12 2
     6    6    7 ar
     7    7    8 ar
     8    8    9 ar
     9    9   10 ar
    10   10   11 ar
    11   11    6 ar
    12   12    8 1
    13   13    4 1
    14   14   13 1
    15   15   13 1
    16   16    5 1
    17   17   16 1
    18   18   16 1
    19   19   14 1
    20   20   14 1
    21   21   14 1
    22   22   15 1
    23   23   15 1
    24   24   15 1
    25   25   17 1
    26   26   17 1
    27   27   17 1
    28   28   18 1
    29   29   18 1
    30   30   18 1
    31   31    7 1
    32   32    9 1
    33   33   10 1
    34   34   11 1
    35   35    1 1
    36   13   16 1
@<TRIPOS>SUBSTRUCTURE
     1 RES1 1

@<TRIPOS>CRYSIN
  25.0800    8.3150   12.8400  90.0000 105.3500  90.0000  15 1

