# MOL2 file generated by ConQuest
# Please check atom types

@<TRIPOS>MOLECULE
YONDEL
    28    28     1
SMALL
NO_CHARGES
****
Generated from CSD

@<TRIPOS>ATOM
      1 C1        -1.9832    0.2143    9.6191 C.2       1 RES1    0.0000
      2 C2        -0.7749   -0.7086    7.6966 C.3       1 RES1    0.0000
      3 H1        -0.7778    0.2486    7.4075 H         1 RES1    0.0000
      4 C3         0.6588   -1.1125    8.0036 C.3       1 RES1    0.0000
      5 H2         1.0215   -0.5270    8.7016 H         1 RES1    0.0000
      6 H3         1.2027   -1.0293    7.1918 H         1 RES1    0.0000
      7 H4         0.6769   -2.0414    8.3162 H         1 RES1    0.0000
      8 C4        -1.3691   -1.5487    6.5750 C.3       1 RES1    0.0000
      9 H5        -1.3499   -2.4948    6.8303 H         1 RES1    0.0000
     10 H6        -0.8447   -1.4206    5.7578 H         1 RES1    0.0000
     11 H7        -2.2952   -1.2719    6.4149 H         1 RES1    0.0000
     12 C5        -3.1210    0.8230   11.5947 C.ar      1 RES1    0.0000
     13 C6        -2.3679    1.1337   12.7091 C.ar      1 RES1    0.0000
     14 H8        -1.5462    0.6869   12.8717 H         1 RES1    0.0000
     15 C7        -2.8238    2.1025   13.5871 C.ar      1 RES1    0.0000
     16 H9        -2.3180    2.3360   14.3576 H         1 RES1    0.0000
     17 C8        -4.0319    2.7243   13.3198 C.ar      1 RES1    0.0000
     18 C9        -4.7942    2.4222   12.2070 C.ar      1 RES1    0.0000
     19 H10       -5.6149    2.8720   12.0429 H         1 RES1    0.0000
     20 C10       -4.3312    1.4459   11.3341 C.ar      1 RES1    0.0000
     21 H11       -4.8393    1.2078   10.5670 H         1 RES1    0.0000
     22 N1        -1.6021   -0.8281    8.9031 N.am      1 RES1    0.0000
     23 H12       -1.7661   -1.6289    9.2289 H         1 RES1    0.0000
     24 N2        -4.5123    3.7647   14.2425 N.pl3     1 RES1    0.0000
     25 O1        -1.8023    1.3890    9.3743 O.2       1 RES1    0.0000
     26 O2        -2.6769   -0.1991   10.7485 O.3       1 RES1    0.0000
     27 O3        -3.8274    4.0370   15.2249 O.2       1 RES1    0.0000
     28 O4        -5.5808    4.3063   13.9939 O.2       1 RES1    0.0000
@<TRIPOS>BOND
     1    1   22 1
     2    2    3 1
     3    4    2 1
     4    5    4 1
     5    6    4 1
     6    7    4 1
     7    8    2 1
     8    9    8 1
     9   10    8 1
    10   11    8 1
    11   12   13 ar
    12   13   14 1
    13   15   13 ar
    14   16   15 1
    15   17   15 ar
    16   18   17 ar
    17   19   18 1
    18   20   12 ar
    19   21   20 1
    20   22    2 1
    21   23   22 1
    22   24   17 1
    23   25    1 2
    24   26    1 1
    25   27   24 2
    26   28   24 2
    27   12   26 1
    28   18   20 ar
@<TRIPOS>SUBSTRUCTURE
     1 RES1 1

@<TRIPOS>CRYSIN
  21.4290    5.0431   22.1450  90.0000 115.5970  90.0000  15 1

