# MOL2 file generated by ConQuest
# Please check atom types

@<TRIPOS>MOLECULE
YONPEW
    63    65     1
SMALL
NO_CHARGES
****
Generated from CSD

@<TRIPOS>ATOM
      1 O1         1.6485    0.0333    1.1782 O.co2     1 RES1    0.0000
      2 O2         2.5604   -0.7265    3.0041 O.co2     1 RES1    0.0000
      3 O3        -4.7428   -0.4258    1.7720 O.2       1 RES1    0.0000
      4 O4        -3.2535   -1.1695    2.8180 O.2       1 RES1    0.0000
      5 O5        -0.2085    3.4523    3.6128 O.3       1 RES1    0.0000
      6 C1        -1.4687    3.9137    3.1586 C.3       1 RES1    0.0000
      7 O6        -1.3106    4.9650    2.1870 O.3       1 RES1    0.0000
      8 C2        -0.6278    6.0908    2.7771 C.3       1 RES1    0.0000
      9 C3         0.8042    5.7018    3.2536 C.3       1 RES1    0.0000
     10 C4         0.5281    4.5093    4.2438 C.3       1 RES1    0.0000
     11 C5        -3.5158    3.1826    1.7980 C.3       1 RES1    0.0000
     12 C6        -2.1858    2.7774    2.3620 C.3       1 RES1    0.0000
     13 C7        -1.2246    2.1703    1.3215 C.3       1 RES1    0.0000
     14 O7        -2.3496    1.6860    3.3820 O.3       1 RES1    0.0000
     15 N1         0.0642    9.4249    1.1261 N.ar      1 RES1    0.0000
     16 C8         0.1111    8.3817    2.0046 C.ar      1 RES1    0.0000
     17 C9        -0.7034    7.2397    1.8334 C.ar      1 RES1    0.0000
     18 C10       -1.6015    7.2581    0.7799 C.ar      1 RES1    0.0000
     19 C11       -1.6955    8.3598   -0.0447 C.ar      1 RES1    0.0000
     20 C12       -0.8294    9.4341    0.1973 C.ar      1 RES1    0.0000
     21 C13        2.4974    0.0769    2.0623 C.2       1 RES1    0.0000
     22 C14        3.3280    1.3818    1.9767 C.3       1 RES1    0.0000
     23 C15        2.7575    2.3723    2.6449 C.3       1 RES1    0.0000
     24 C16        3.5445    3.7415    2.5984 C.2       1 RES1    0.0000
     25 C17        3.0335    4.9076    2.4364 C.2       1 RES1    0.0000
     26 C18        1.6176    5.2404    2.0121 C.3       1 RES1    0.0000
     27 N2        -4.0806   -0.3914    2.6952 N.pl3     1 RES1    0.0000
     28 C19       -3.5227    1.5838    4.0707 C.ar      1 RES1    0.0000
     29 C20       -4.3716    0.5256    3.7468 C.ar      1 RES1    0.0000
     30 C21       -5.5653    0.3478    4.4448 C.ar      1 RES1    0.0000
     31 C22       -5.9113    1.2292    5.4704 C.ar      1 RES1    0.0000
     32 C23       -5.0624    2.2874    5.7961 C.ar      1 RES1    0.0000
     33 C24       -3.8687    2.4641    5.0962 C.ar      1 RES1    0.0000
     34 C25       -7.2425    1.0720    6.3340 C.3       1 RES1    0.0000
     35 H1        -2.0208    4.2442    4.0260 H         1 RES1    0.0000
     36 H2        -1.0929    6.4145    3.6947 H         1 RES1    0.0000
     37 H3         1.3724    6.4902    3.7226 H         1 RES1    0.0000
     38 H4        -0.0733    4.8800    5.0609 H         1 RES1    0.0000
     39 H5         1.4664    4.1352    4.6272 H         1 RES1    0.0000
     40 H6        -3.3841    3.9653    1.0647 H         1 RES1    0.0000
     41 H7        -4.1471    3.5418    2.5984 H         1 RES1    0.0000
     42 H8        -3.9798    2.3264    1.3308 H         1 RES1    0.0000
     43 H9        -1.0356    2.8865    0.5361 H         1 RES1    0.0000
     44 H10       -1.6646    1.2797    0.8990 H         1 RES1    0.0000
     45 H11       -0.2944    1.9155    1.8073 H         1 RES1    0.0000
     46 H12        0.7905    8.4322    2.8422 H         1 RES1    0.0000
     47 H13       -2.2270    6.3961    0.6031 H         1 RES1    0.0000
     48 H14       -2.4481    8.4172   -0.8171 H         1 RES1    0.0000
     49 H15       -0.8638   10.2857   -0.4653 H         1 RES1    0.0000
     50 H16        3.3406    1.7032    0.9455 H         1 RES1    0.0000
     51 H17        4.3384    1.2028    2.3117 H         1 RES1    0.0000
     52 H18        1.7333    2.5146    2.3341 H         1 RES1    0.0000
     53 H19        2.7792    2.0555    3.6779 H         1 RES1    0.0000
     54 H20        4.6202    3.7025    2.6877 H         1 RES1    0.0000
     55 H21        3.6934    5.7454    2.6077 H         1 RES1    0.0000
     56 H22        1.6302    6.0277    1.2731 H         1 RES1    0.0000
     57 H23        1.1628    4.3567    1.5896 H         1 RES1    0.0000
     58 H24       -6.2298   -0.4407    4.2289 H         1 RES1    0.0000
     59 H25       -5.2594    3.0139    6.5741 H         1 RES1    0.0000
     60 H26       -3.1538    3.2859    5.3028 H         1 RES1    0.0000
     61 H27       -7.7958    0.2158    5.9785 H         1 RES1    0.0000
     62 H28       -7.8370    1.9637    6.2056 H         1 RES1    0.0000
     63 H29       -7.0099    0.9411    7.3819 H         1 RES1    0.0000
@<TRIPOS>BOND
     1    1   21 2
     2    2   21 1
     3    3   27 2
     4    4   27 2
     5    5    6 1
     6    6    7 1
     7    7    8 1
     8    8    9 1
     9    9   10 1
    10   10    5 1
    11   11   12 1
    12   12    6 1
    13   13   12 1
    14   14   12 1
    15   15   16 ar
    16   16   17 ar
    17   17    8 1
    18   18   17 ar
    19   19   18 ar
    20   20   15 ar
    21   21   22 1
    22   22   23 1
    23   23   24 1
    24   24   25 2
    25   25   26 1
    26   26    9 1
    27   27   29 1
    28   28   14 1
    29   29   28 ar
    30   30   29 ar
    31   31   30 ar
    32   32   31 ar
    33   33   28 ar
    34   34   31 1
    35   35    6 1
    36   36    8 1
    37   37    9 1
    38   38   10 1
    39   39   10 1
    40   40   11 1
    41   41   11 1
    42   42   11 1
    43   43   13 1
    44   44   13 1
    45   45   13 1
    46   46   16 1
    47   47   18 1
    48   48   19 1
    49   49   20 1
    50   50   22 1
    51   51   22 1
    52   52   23 1
    53   53   23 1
    54   54   24 1
    55   55   25 1
    56   56   26 1
    57   57   26 1
    58   58   30 1
    59   59   32 1
    60   60   33 1
    61   61   34 1
    62   62   34 1
    63   63   34 1
    64   19   20 ar
    65   32   33 ar
@<TRIPOS>SUBSTRUCTURE
     1 RES1 1

@<TRIPOS>CRYSIN
  11.4560   11.4770   18.6130  90.0000  90.0000  90.0000  19 1

