# MOL2 file generated by ConQuest
# Please check atom types

@<TRIPOS>MOLECULE
YORCIR
    50    51     1
SMALL
NO_CHARGES
****
Generated from CSD

@<TRIPOS>ATOM
      1 O1        -3.7894   -1.7204   -3.4794 O.3       1 RES1    0.0000
      2 C1        -4.2420   -0.9774   -4.6365 C.3       1 RES1    0.0000
      3 C2        -3.0450   -0.2889   -5.2536 C.3       1 RES1    0.0000
      4 C3        -1.9906   -1.2889   -5.7246 C.3       1 RES1    0.0000
      5 O2        -5.4941    1.5506   -8.1403 O.3       1 RES1    0.0000
      6 C4        -4.6489    0.4525   -8.5098 C.3       1 RES1    0.0000
      7 C5        -5.5696   -0.5452   -9.1634 C.3       1 RES1    0.0000
      8 C6        -3.5305    0.8909   -9.4070 C.3       1 RES1    0.0000
      9 O3        -4.1748   -0.1916   -7.3283 O.3       1 RES1    0.0000
     10 C7        -3.4927    0.6643   -6.3783 C.3       1 RES1    0.0000
     11 C8        -4.4038    1.8302   -5.9966 C.3       1 RES1    0.0000
     12 C9        -3.6983    2.7951   -5.0791 C.3       1 RES1    0.0000
     13 C10       -4.9013    2.5085   -7.2674 C.3       1 RES1    0.0000
     14 C11       -5.9700    3.5591   -7.0482 C.3       1 RES1    0.0000
     15 O4        -5.9221   -2.0350   -2.8867 O.2       1 RES1    0.0000
     16 C12       -4.7389   -2.2110   -2.7202 C.2       1 RES1    0.0000
     17 C13       -4.2066   -2.9797   -1.5469 C.ar      1 RES1    0.0000
     18 C14       -2.9251   -3.5147   -1.5306 C.ar      1 RES1    0.0000
     19 C15       -2.4713   -4.2016   -0.4182 C.ar      1 RES1    0.0000
     20 C16       -3.3159   -4.3589    0.6618 C.ar      1 RES1    0.0000
     21 C17       -4.6058   -3.8426    0.6780 C.ar      1 RES1    0.0000
     22 C18       -5.0368   -3.1596   -0.4507 C.ar      1 RES1    0.0000
     23 N1        -2.8298   -5.0349    1.8635 N.pl3     1 RES1    0.0000
     24 O5        -3.6210   -5.4181    2.6837 O.2       1 RES1    0.0000
     25 O6        -1.6124   -5.1697    1.9732 O.2       1 RES1    0.0000
     26 H1        -4.8965   -0.3271   -4.3726 H         1 RES1    0.0000
     27 H2        -4.6448   -1.5716   -5.2739 H         1 RES1    0.0000
     28 H3        -2.6416    0.2500   -4.5675 H         1 RES1    0.0000
     29 H4        -1.7413   -1.8598   -4.9938 H         1 RES1    0.0000
     30 H5        -2.3496   -1.8208   -6.4392 H         1 RES1    0.0000
     31 H6        -1.2174   -0.8131   -6.0372 H         1 RES1    0.0000
     32 H7        -6.2643   -0.7913   -8.5504 H         1 RES1    0.0000
     33 H8        -5.9604   -0.1519   -9.9470 H         1 RES1    0.0000
     34 H9        -5.0709   -1.3271   -9.4151 H         1 RES1    0.0000
     35 H10       -2.9760    1.5226   -8.9442 H         1 RES1    0.0000
     36 H11       -3.0054    0.1277   -9.6587 H         1 RES1    0.0000
     37 H12       -3.8949    1.3029  -10.1947 H         1 RES1    0.0000
     38 H13       -2.7081    1.0210   -6.8046 H         1 RES1    0.0000
     39 H14       -5.1638    1.4743   -5.5297 H         1 RES1    0.0000
     40 H15       -4.2923    3.5155   -4.8558 H         1 RES1    0.0000
     41 H16       -3.4340    2.3387   -4.2752 H         1 RES1    0.0000
     42 H17       -2.9203    3.1464   -5.5175 H         1 RES1    0.0000
     43 H18       -4.1544    2.9127   -7.7140 H         1 RES1    0.0000
     44 H19       -6.2290    3.9353   -7.8926 H         1 RES1    0.0000
     45 H20       -6.7349    3.1588   -6.6259 H         1 RES1    0.0000
     46 H21       -5.6008    4.2515   -6.4798 H         1 RES1    0.0000
     47 H22       -2.3532   -3.4096   -2.2939 H         1 RES1    0.0000
     48 H23       -1.5818   -4.5622   -0.3979 H         1 RES1    0.0000
     49 H24       -5.1770   -3.9540    1.4413 H         1 RES1    0.0000
     50 H25       -5.9281   -2.8045   -0.4710 H         1 RES1    0.0000
@<TRIPOS>BOND
     1    1    2 1
     2    2    3 1
     3    3    4 1
     4    4   29 1
     5    5    6 1
     6    6    7 1
     7    7   32 1
     8    8    6 1
     9    9    6 1
    10   10    3 1
    11   11   10 1
    12   12   11 1
    13   13    5 1
    14   14   13 1
    15   15   16 2
    16   16    1 1
    17   17   16 1
    18   18   17 ar
    19   19   18 ar
    20   20   19 ar
    21   21   20 ar
    22   22   17 ar
    23   23   20 1
    24   24   23 2
    25   25   23 2
    26   26    2 1
    27   27    2 1
    28   28    3 1
    29   30    4 1
    30   31    4 1
    31   33    7 1
    32   34    7 1
    33   35    8 1
    34   36    8 1
    35   37    8 1
    36   38   10 1
    37   39   11 1
    38   40   12 1
    39   41   12 1
    40   42   12 1
    41   43   13 1
    42   44   14 1
    43   45   14 1
    44   46   14 1
    45   47   18 1
    46   48   19 1
    47   49   21 1
    48   50   22 1
    49    9   10 1
    50   11   13 1
    51   21   22 ar
@<TRIPOS>SUBSTRUCTURE
     1 RES1 1

@<TRIPOS>CRYSIN
   5.9940    7.7880   40.6000  90.0000  90.0000  90.0000  19 1

