# MOL2 file generated by ConQuest
# Please check atom types

@<TRIPOS>MOLECULE
YORYEJ
    19    18     1
SMALL
NO_CHARGES
****
Generated from CSD

@<TRIPOS>ATOM
      1 O1         4.7964    0.5387    4.8146 O.2       1 RES1    0.0000
      2 O2         5.8779    3.6466    5.0127 O.2       1 RES1    0.0000
      3 O3         6.1349    2.7882    6.9734 O.2       1 RES1    0.0000
      4 O4         8.5680    4.5362    4.7957 O.2       1 RES1    0.0000
      5 O5         8.7428    2.9749    3.3296 O.2       1 RES1    0.0000
      6 N1         6.6519    1.0676    3.6514 N.am      1 RES1    0.0000
      7 N2         6.5066    3.0238    5.8404 N.pl3     1 RES1    0.0000
      8 N3         8.4220    3.3904    4.4172 N.pl3     1 RES1    0.0000
      9 C1         5.3546    0.7772    3.7687 C.2       1 RES1    0.0000
     10 C2         7.5512    1.0510    4.7755 C.3       1 RES1    0.0000
     11 C3         7.8375    2.4001    5.4203 C.3       1 RES1    0.0000
     12 C4         8.7740    2.2955    6.5911 C.3       1 RES1    0.0000
     13 H1         4.9409    0.7342    2.9107 H         1 RES1    0.0000
     14 H2         6.8954    1.2250    2.8439 H         1 RES1    0.0000
     15 H3         8.3770    0.7264    4.5194 H         1 RES1    0.0000
     16 H4         7.1621    0.4917    5.4707 H         1 RES1    0.0000
     17 H5         9.6590    1.9318    6.2896 H         1 RES1    0.0000
     18 H6         8.3670    1.6561    7.2459 H         1 RES1    0.0000
     19 H7         8.8767    3.0639    6.9368 H         1 RES1    0.0000
@<TRIPOS>BOND
     1    1    9 2
     2    2    7 2
     3    3    7 2
     4    4    8 2
     5    5    8 2
     6    6    9 1
     7    7   11 1
     8    8   11 1
     9    9   13 1
    10   10    6 1
    11   11   10 1
    12   12   11 1
    13   14    6 1
    14   15   10 1
    15   16   10 1
    16   17   12 1
    17   18   12 1
    18   19   12 1
@<TRIPOS>SUBSTRUCTURE
     1 RES1 1

@<TRIPOS>CRYSIN
   6.1330    9.7790   12.6170  90.0000  90.0000  88.6500  14 3

