# MOL2 file generated by ConQuest
# Please check atom types

@<TRIPOS>MOLECULE
YOTJAU
    46    49     1
SMALL
NO_CHARGES
****
Generated from CSD

@<TRIPOS>ATOM
      1 O1         2.4531   -0.3628   10.9939 O.2       1 RES1    0.0000
      2 C1        -2.9775   -3.5834    8.0621 C.3       1 RES1    0.0000
      3 H1        -2.2161   -3.8336    8.5905 H         1 RES1    0.0000
      4 H2        -3.5363   -4.3517    7.9217 H         1 RES1    0.0000
      5 H3        -3.4763   -2.9052    8.5224 H         1 RES1    0.0000
      6 C2        -2.5162   -3.0531    6.7374 C.3       1 RES1    0.0000
      7 O2        -1.8201   -1.7701    6.9176 O.3       1 RES1    0.0000
      8 C3        -0.6856   -1.6994    7.6465 C.2       1 RES1    0.0000
      9 N1        -0.2455   -0.4199    7.7151 N.am      1 RES1    0.0000
     10 C4         0.9962   -0.1488    8.4202 C.3       1 RES1    0.0000
     11 H4         1.6369    0.2266    7.7944 H         1 RES1    0.0000
     12 H5         1.3603   -0.9862    8.7473 H         1 RES1    0.0000
     13 C5         0.8354    0.8147    9.6006 C.3       1 RES1    0.0000
     14 C6         2.0574    0.6825   10.5259 C.2       1 RES1    0.0000
     15 C7         2.5944    2.0328   10.6949 C.ar      1 RES1    0.0000
     16 C8         3.6693    2.4983   11.4425 C.ar      1 RES1    0.0000
     17 H6         4.2258    1.9085   11.8988 H         1 RES1    0.0000
     18 C9         3.8901    3.8529   11.4885 C.ar      1 RES1    0.0000
     19 H7         4.6091    4.1854   11.9758 H         1 RES1    0.0000
     20 C10       -3.6663   -2.6628    5.8503 C.3       1 RES1    0.0000
     21 H8        -4.2313   -2.0424    6.3134 H         1 RES1    0.0000
     22 H9        -4.1703   -3.4460    5.6180 H         1 RES1    0.0000
     23 H10       -3.3278   -2.2524    5.0498 H         1 RES1    0.0000
     24 O3        -0.1346   -2.6449    8.1584 O.2       1 RES1    0.0000
     25 C11       -1.0287    0.7333    7.2649 C.3       1 RES1    0.0000
     26 H11       -1.5184    0.4918    6.4628 H         1 RES1    0.0000
     27 H12       -0.4241    1.4578    7.0369 H         1 RES1    0.0000
     28 C12       -2.0097    1.2190    8.3141 C.3       1 RES1    0.0000
     29 H13       -2.5373    1.9400    7.9365 H         1 RES1    0.0000
     30 H14       -2.6154    0.4935    8.5298 H         1 RES1    0.0000
     31 C13       -1.3637    1.7107    9.5972 C.3       1 RES1    0.0000
     32 H15       -2.0669    2.0223   10.2032 H         1 RES1    0.0000
     33 O4        -0.4675    2.8080    9.3255 O.3       1 RES1    0.0000
     34 N2         0.8680    2.2343    9.1579 N.3       1 RES1    0.0000
     35 C14       -0.4975    0.6957   10.3339 C.3       1 RES1    0.0000
     36 H16       -0.8623   -0.1995   10.2594 H         1 RES1    0.0000
     37 H17       -0.4050    0.9258   11.2715 H         1 RES1    0.0000
     38 C15        3.0457    4.7332   10.8118 C.ar      1 RES1    0.0000
     39 H18        3.1989    5.6476   10.8794 H         1 RES1    0.0000
     40 C16        1.9917    4.2887   10.0477 C.ar      1 RES1    0.0000
     41 H19        1.4376    4.8820    9.5936 H         1 RES1    0.0000
     42 C17        1.7902    2.9166    9.9850 C.ar      1 RES1    0.0000
     43 C18       -1.6120   -4.0533    6.0367 C.3       1 RES1    0.0000
     44 H20       -1.2497   -3.6551    5.2422 H         1 RES1    0.0000
     45 H21       -2.1207   -4.8330    5.8014 H         1 RES1    0.0000
     46 H22       -0.8955   -4.3044    6.6256 H         1 RES1    0.0000
@<TRIPOS>BOND
     1    1   14 2
     2    2    3 1
     3    4    2 1
     4    5    2 1
     5    6    2 1
     6    7    6 1
     7    8    7 1
     8    9    8 1
     9   10    9 1
    10   11   10 1
    11   12   10 1
    12   13   10 1
    13   14   13 1
    14   15   14 1
    15   16   15 ar
    16   17   16 1
    17   18   16 ar
    18   19   18 1
    19   20    6 1
    20   21   20 1
    21   22   20 1
    22   23   20 1
    23   24    8 2
    24   25    9 1
    25   26   25 1
    26   27   25 1
    27   28   25 1
    28   29   28 1
    29   30   28 1
    30   31   28 1
    31   32   31 1
    32   33   31 1
    33   34   13 1
    34   35   13 1
    35   36   35 1
    36   37   35 1
    37   38   18 ar
    38   39   38 1
    39   40   38 ar
    40   41   40 1
    41   42   15 ar
    42   43    6 1
    43   44   43 1
    44   45   43 1
    45   46   43 1
    46   31   35 1
    47   33   34 1
    48   34   42 1
    49   40   42 ar
@<TRIPOS>SUBSTRUCTURE
     1 RES1 1

@<TRIPOS>CRYSIN
  26.4774    8.7506   17.7496  90.0000 123.5310  90.0000  15 1

