# MOL2 file generated by ConQuest
# Please check atom types

@<TRIPOS>MOLECULE
YOTNAX
    48    49     1
SMALL
NO_CHARGES
****
Generated from CSD

@<TRIPOS>ATOM
      1 C1        10.1749   -2.0744    8.3481 C.ar      1 RES1    0.0000
      2 C2         9.3896   -2.9263    7.5743 C.ar      1 RES1    0.0000
      3 H1         9.7584   -3.7033    7.2201 H         1 RES1    0.0000
      4 C3         8.0604   -2.6185    7.3325 C.ar      1 RES1    0.0000
      5 H2         7.5384   -3.1992    6.8270 H         1 RES1    0.0000
      6 C4         7.4967   -1.4476    7.8377 C.ar      1 RES1    0.0000
      7 H3         6.6039   -1.2452    7.6695 H         1 RES1    0.0000
      8 C5         8.2793   -0.5885    8.5912 C.ar      1 RES1    0.0000
      9 H4         7.9073    0.1969    8.9231 H         1 RES1    0.0000
     10 C6         9.6262   -0.8819    8.8643 C.ar      1 RES1    0.0000
     11 C7        10.4141    0.0355    9.6898 C.2       1 RES1    0.0000
     12 H5        10.0138    0.8541    9.9877 H         1 RES1    0.0000
     13 C8        13.5276    0.2407   11.1384 C.2       1 RES1    0.0000
     14 C9        14.2146    1.2873   11.9735 C.3       1 RES1    0.0000
     15 H6        13.6941    1.4515   12.7757 H         1 RES1    0.0000
     16 H7        14.2642    2.1165   11.4736 H         1 RES1    0.0000
     17 C10       15.6221    0.8486   12.3659 C.3       1 RES1    0.0000
     18 H8        16.1292    0.6473   11.5630 H         1 RES1    0.0000
     19 H9        15.5675    0.0383   12.8957 H         1 RES1    0.0000
     20 N1        11.6110   -0.3006    9.9864 N.2       1 RES1    0.0000
     21 O1        11.4607   -2.4537    8.5664 O.3       1 RES1    0.0000
     22 H10       11.8610   -1.8470    9.1196 H         1 RES1    0.0000
     23 O2        12.2581    0.6639   10.8075 O.3       1 RES1    0.0000
     24 O3        13.9827   -0.8181   10.8106 O.2       1 RES1    0.0000
     25 C1F       21.7976    4.8476   17.1828 C.ar      1 RES1    0.0000
     26 C2F       22.5829    5.6995   17.9567 C.ar      1 RES1    0.0000
     27 H1F       22.2140    6.4765   18.3108 H         1 RES1    0.0000
     28 C3F       23.9121    5.3917   18.1984 C.ar      1 RES1    0.0000
     29 H2F       24.4341    5.9724   18.7040 H         1 RES1    0.0000
     30 C4F       24.4757    4.2208   17.6932 C.ar      1 RES1    0.0000
     31 H3F       25.3686    4.0184   17.8614 H         1 RES1    0.0000
     32 C5F       23.6932    3.3617   16.9398 C.ar      1 RES1    0.0000
     33 H4F       24.0652    2.5763   16.6079 H         1 RES1    0.0000
     34 C6F       22.3463    3.6551   16.6666 C.ar      1 RES1    0.0000
     35 C7F       21.5584    2.7377   15.8412 C.2       1 RES1    0.0000
     36 H5F       21.9586    1.9191   15.5432 H         1 RES1    0.0000
     37 C8F       18.4449    2.5325   14.3926 C.2       1 RES1    0.0000
     38 C9F       17.7578    1.4859   13.5574 C.3       1 RES1    0.0000
     39 H6F       18.2783    1.3217   12.7553 H         1 RES1    0.0000
     40 H7F       17.7083    0.6567   14.0573 H         1 RES1    0.0000
     41 C10F      16.3504    1.9246   13.1650 C.3       1 RES1    0.0000
     42 H8F       15.8433    2.1259   13.9680 H         1 RES1    0.0000
     43 H9F       16.4049    2.7349   12.6353 H         1 RES1    0.0000
     44 N1F       20.3615    3.0738   15.5445 N.2       1 RES1    0.0000
     45 O1F       20.5118    5.2269   16.9645 O.3       1 RES1    0.0000
     46 H10F      20.1115    4.6202   16.4113 H         1 RES1    0.0000
     47 O2F       19.7144    2.1093   14.7234 O.3       1 RES1    0.0000
     48 O3F       17.9897    3.5913   14.7204 O.2       1 RES1    0.0000
@<TRIPOS>BOND
     1    1    2 ar
     2    2    3 1
     3    4    2 ar
     4    5    4 1
     5    6    4 ar
     6    7    6 1
     7    8    6 ar
     8    9    8 1
     9   10    1 ar
    10   11   10 1
    11   12   11 1
    12   13   14 1
    13   14   15 1
    14   16   14 1
    15   17   14 1
    16   18   17 1
    17   19   17 1
    18   20   11 2
    19   21    1 1
    20   22   21 1
    21   23   13 1
    22   24   13 2
    23   25   26 ar
    24   26   27 1
    25   28   26 ar
    26   29   28 1
    27   30   28 ar
    28   31   30 1
    29   32   30 ar
    30   33   32 1
    31   34   25 ar
    32   35   34 1
    33   36   35 1
    34   37   38 1
    35   38   39 1
    36   40   38 1
    37   41   17 1
    38   42   41 1
    39   43   41 1
    40   44   35 2
    41   45   25 1
    42   46   45 1
    43   47   37 1
    44   48   37 2
    45    8   10 ar
    46   20   23 1
    47   32   34 ar
    48   38   41 1
    49   44   47 1
@<TRIPOS>SUBSTRUCTURE
     1 RES1 1

@<TRIPOS>CRYSIN
  13.0293    5.5464   25.5380  90.0000  91.3480  90.0000  15 1

