# MOL2 file generated by ConQuest
# Please check atom types

@<TRIPOS>MOLECULE
YOTSUV
    14    14     1
SMALL
NO_CHARGES
****
Generated from CSD

@<TRIPOS>ATOM
      1 O1        11.0479   -0.3965    9.6419 O.2       1 RES1    0.0000
      2 O2         7.2697    2.1674    9.7528 O.2       1 RES1    0.0000
      3 O3         8.1130    0.6823    7.4850 O.2       1 RES1    0.0000
      4 O4        10.1910    1.3029    7.4836 O.2       1 RES1    0.0000
      5 N1         9.1729    0.9253    9.4201 N.am      1 RES1    0.0000
      6 N2         9.1593    0.9762    8.0083 N.pl3     1 RES1    0.0000
      7 C1        10.1428    0.2176   10.1517 C.2       1 RES1    0.0000
      8 C2         9.8206    0.4491   11.5824 C.3       1 RES1    0.0000
      9 C3         8.4646    1.1519   11.6068 C.3       1 RES1    0.0000
     10 C4         8.1747    1.5312   10.1963 C.2       1 RES1    0.0000
     11 H1        10.5122    1.0172   12.0071 H         1 RES1    0.0000
     12 H2         9.7735   -0.4105   12.0706 H         1 RES1    0.0000
     13 H3         7.7646    0.5443   11.9543 H         1 RES1    0.0000
     14 H4         8.5012    1.9564   12.1815 H         1 RES1    0.0000
@<TRIPOS>BOND
     1    1    7 2
     2    2   10 2
     3    3    6 2
     4    4    6 2
     5    5    6 1
     6    7    5 1
     7    8    7 1
     8    9    8 1
     9   10    5 1
    10   11    8 1
    11   12    8 1
    12   13    9 1
    13   14    9 1
    14    9   10 1
@<TRIPOS>SUBSTRUCTURE
     1 RES1 1

@<TRIPOS>CRYSIN
  10.4630    8.2100   13.5230  90.0000  90.0000  90.0000  61 1

