# MOL2 file generated by ConQuest
# Please check atom types

@<TRIPOS>MOLECULE
YOVCIW
    51    53     1
SMALL
NO_CHARGES
****
Generated from CSD

@<TRIPOS>ATOM
      1 N1         0.3504    7.9460    3.6035 N.pl3     1 RES1    0.0000
      2 C1         0.9466    8.7353    4.6935 C.3       1 RES1    0.0000
      3 H1         0.2002    9.0507    5.2452 H         1 RES1    0.0000
      4 C2         1.6002    9.9908    4.0947 C.3       1 RES1    0.0000
      5 C3         2.6905    9.5877    3.1176 C.2       1 RES1    0.0000
      6 C4         2.5026    8.2526    2.4184 C.3       1 RES1    0.0000
      7 H2         3.0721    7.6047    2.8599 H         1 RES1    0.0000
      8 H3         2.8276    8.3465    1.5094 H         1 RES1    0.0000
      9 C5         1.0837    7.6614    2.3506 C.3       1 RES1    0.0000
     10 H4         0.6093    8.1133    1.6220 H         1 RES1    0.0000
     11 N2        -0.9655    7.7896    3.6829 N.2       1 RES1    0.0000
     12 C6         1.7852    7.8281    5.5865 C.ar      1 RES1    0.0000
     13 C7         3.1693    7.8161    5.6758 C.ar      1 RES1    0.0000
     14 H5         3.6618    8.4097    5.1564 H         1 RES1    0.0000
     15 C8         3.8374    6.9423    6.5184 C.ar      1 RES1    0.0000
     16 H6         4.7666    6.9517    6.5513 H         1 RES1    0.0000
     17 C9         3.1316    6.0577    7.3089 C.ar      1 RES1    0.0000
     18 C10        1.7446    6.0371    7.2196 C.ar      1 RES1    0.0000
     19 H7         1.2549    5.4334    7.7312 H         1 RES1    0.0000
     20 C11        1.0975    6.9061    6.3784 C.ar      1 RES1    0.0000
     21 H8         0.1690    6.8809    6.3345 H         1 RES1    0.0000
     22 C12        2.0935   10.9349    5.1953 C.3       1 RES1    0.0000
     23 H9         2.4990   11.7080    4.7961 H         1 RES1    0.0000
     24 H10        2.7398   10.4802    5.7403 H         1 RES1    0.0000
     25 H11        1.3514   11.2084    5.7386 H         1 RES1    0.0000
     26 C13        0.5615   10.7527    3.2326 C.3       1 RES1    0.0000
     27 H12        0.9699   11.5350    2.8565 H         1 RES1    0.0000
     28 H13       -0.1821   11.0128    3.7819 H         1 RES1    0.0000
     29 H14        0.2517   10.1822    2.5253 H         1 RES1    0.0000
     30 C14        1.1135    6.1832    2.0286 C.ar      1 RES1    0.0000
     31 C15        1.6749    5.2500    2.8966 C.ar      1 RES1    0.0000
     32 H15        2.0260    5.5327    3.7102 H         1 RES1    0.0000
     33 C16        1.7163    3.9146    2.5662 C.ar      1 RES1    0.0000
     34 H16        2.0957    3.3028    3.1553 H         1 RES1    0.0000
     35 C17        1.1947    3.4758    1.3565 C.ar      1 RES1    0.0000
     36 C18        0.6434    4.3920    0.4776 C.ar      1 RES1    0.0000
     37 H17        0.3003    4.1093   -0.3398 H         1 RES1    0.0000
     38 C19        0.6079    5.7246    0.8219 C.ar      1 RES1    0.0000
     39 H18        0.2336    6.3347    0.2288 H         1 RES1    0.0000
     40 C20        5.0851    5.2314    8.4180 C.3       1 RES1    0.0000
     41 H19        5.3310    4.5818    9.0800 H         1 RES1    0.0000
     42 H20        5.3375    6.1075    8.7197 H         1 RES1    0.0000
     43 H21        5.5363    5.0347    7.5946 H         1 RES1    0.0000
     44 C21        0.7283    1.6544   -0.1016 C.3       1 RES1    0.0000
     45 H22        0.8357    0.7012   -0.1520 H         1 RES1    0.0000
     46 H23        1.1882    2.0674   -0.8366 H         1 RES1    0.0000
     47 H24       -0.2053    1.8733   -0.1451 H         1 RES1    0.0000
     48 O1         3.6509   10.2772    2.8920 O.2       1 RES1    0.0000
     49 O2        -1.4871    7.3008    2.6873 O.2       1 RES1    0.0000
     50 O3         3.6785    5.1880    8.2104 O.3       1 RES1    0.0000
     51 O4         1.2702    2.1282    1.1238 O.3       1 RES1    0.0000
@<TRIPOS>BOND
     1    1    2 1
     2    2    3 1
     3    4    2 1
     4    5    4 1
     5    6    5 1
     6    7    6 1
     7    8    6 1
     8    9    1 1
     9   10    9 1
    10   11    1 1
    11   12    2 1
    12   13   12 ar
    13   14   13 1
    14   15   13 ar
    15   16   15 1
    16   17   15 ar
    17   18   17 ar
    18   19   18 1
    19   20   12 ar
    20   21   20 1
    21   22    4 1
    22   23   22 1
    23   24   22 1
    24   25   22 1
    25   26    4 1
    26   27   26 1
    27   28   26 1
    28   29   26 1
    29   30    9 1
    30   31   30 ar
    31   32   31 1
    32   33   31 ar
    33   34   33 1
    34   35   33 ar
    35   36   35 ar
    36   37   36 1
    37   38   30 ar
    38   39   38 1
    39   40   41 1
    40   42   40 1
    41   43   40 1
    42   44   45 1
    43   46   44 1
    44   47   44 1
    45   48    5 2
    46   49   11 2
    47   50   17 1
    48   51   35 1
    49    6    9 1
    50   18   20 ar
    51   36   38 ar
    52   40   50 1
    53   44   51 1
@<TRIPOS>SUBSTRUCTURE
     1 RES1 1

@<TRIPOS>CRYSIN
   7.2540   15.0469   17.0741  90.0000  90.0000  90.0000  19 1

