# MOL2 file generated by ConQuest
# Please check atom types

@<TRIPOS>MOLECULE
YOVCOD01
    42    33     2
SMALL
NO_CHARGES
****
Generated from CSD

@<TRIPOS>ATOM
      1 O1         0.5905    1.8910    1.0816 O.3       1 RES1    0.0000
      2 H1        -0.2275    1.6002    1.1004 H         1 RES1    0.0000
      3 O2         1.1153    0.6241    3.4340 O.2       1 RES1    0.0000
      4 O3         6.3851   -1.4904    6.3027 O.3       1 RES1    0.0000
      5 N1         1.3356    0.7333    1.1996 N.am      1 RES1    0.0000
      6 H2         1.6125    0.3863    0.4421 H         1 RES1    0.0000
      7 C1         1.5578    0.1749    2.3654 C.2       1 RES1    0.0000
      8 C2         2.3847   -1.0754    2.3052 C.3       1 RES1    0.0000
      9 H3         2.8437   -1.1085    1.4400 H         1 RES1    0.0000
     10 H4         1.7855   -1.8502    2.3560 H         1 RES1    0.0000
     11 C3         3.4134   -1.1869    3.4010 C.ar      1 RES1    0.0000
     12 C4         4.4381   -0.2560    3.5261 C.ar      1 RES1    0.0000
     13 H5         4.4741    0.4729    2.9335 H         1 RES1    0.0000
     14 C5         5.4016   -0.3796    4.5004 C.ar      1 RES1    0.0000
     15 H6         6.0840    0.2643    4.5682 H         1 RES1    0.0000
     16 C6         5.3728   -1.4429    5.3789 C.ar      1 RES1    0.0000
     17 C7         4.3566   -2.3639    5.2802 C.ar      1 RES1    0.0000
     18 H7         4.3150   -3.0862    5.8812 H         1 RES1    0.0000
     19 C8         3.3932   -2.2254    4.2926 C.ar      1 RES1    0.0000
     20 H8         2.7070   -2.8632    4.2343 H         1 RES1    0.0000
     21 C9         6.4032   -2.5978    7.2064 C.3       1 RES1    0.0000
     22 H9         6.4629   -3.4365    6.7032 H         1 RES1    0.0000
     23 H10        5.5743   -2.6133    7.7302 H         1 RES1    0.0000
     24 C10        7.5803   -2.4654    8.1177 C.3       1 RES1    0.0000
     25 H11        7.5878   -1.5599    8.4930 H         1 RES1    0.0000
     26 H12        7.4720   -3.0939    8.8617 H         1 RES1    0.0000
     27 C11        8.8255   -2.7060    7.4998 C.3       1 RES1    0.0000
     28 H13        9.5403   -2.3622    8.0764 H         1 RES1    0.0000
     29 H14        8.8620   -2.2138    6.6533 H         1 RES1    0.0000
     30 C12        9.0730   -4.1439    7.2308 C.3       1 RES1    0.0000
     31 H15        9.9405   -4.2515    6.8048 H         1 RES1    0.0000
     32 H16        8.3819   -4.4905    6.6458 H         1 RES1    0.0000
     33 H17        9.0652   -4.6378    8.0670 H         1 RES1    0.0000
     34 H18        8.1256   -1.7227    7.7801 Du        2 SUP2    0.0000
     35 H19        7.2384   -2.1895    8.9934 Du        2 SUP2    0.0000
     36 C13        8.4947   -3.5977    8.3519 Du        2 SUP2    0.0000
     37 H20        8.4546   -4.2063    7.5826 Du        2 SUP2    0.0000
     38 H21        8.1982   -4.0932    9.1420 Du        2 SUP2    0.0000
     39 C14        9.9281   -3.1452    8.5523 Du        2 SUP2    0.0000
     40 H22       10.4916   -3.9216    8.7065 Du        2 SUP2    0.0000
     41 H23        9.9732   -2.5553    9.3197 Du        2 SUP2    0.0000
     42 H24       10.2343   -2.6767    7.7613 Du        2 SUP2    0.0000
@<TRIPOS>BOND
     1    1    2 1
     2    3    7 2
     3    4   16 1
     4    5    1 1
     5    6    5 1
     6    7    5 1
     7    8    7 1
     8    9    8 1
     9   10    8 1
    10   11    8 1
    11   12   11 ar
    12   13   12 1
    13   14   12 ar
    14   15   14 1
    15   16   14 ar
    16   17   16 ar
    17   18   17 1
    18   19   11 ar
    19   20   19 1
    20   21    4 1
    21   22   21 1
    22   23   21 1
    23   24   21 1
    24   25   24 1
    25   26   24 1
    26   27   24 1
    27   28   27 1
    28   29   27 1
    29   30   27 1
    30   31   30 1
    31   32   30 1
    32   33   30 1
    33   17   19 ar
@<TRIPOS>SUBSTRUCTURE
     1 RES1 1
     2 SUP2 34

@<TRIPOS>CRYSIN
  47.6460    5.5179    9.5052  90.0000  98.3130  90.0000  15 1

