# MOL2 file generated by ConQuest
# Please check atom types

@<TRIPOS>MOLECULE
YOVHIB
    38    40     1
SMALL
NO_CHARGES
****
Generated from CSD

@<TRIPOS>ATOM
      1 O1         1.7634    8.4452    7.9249 O.3       1 RES1    0.0000
      2 O2        -0.5181    5.9100   10.0682 O.3       1 RES1    0.0000
      3 N1        -0.8533    8.1258    6.3009 N.3       1 RES1    0.0000
      4 N2        -0.1083    7.9710    4.1878 N.2       1 RES1    0.0000
      5 N3        -1.1824    6.8387    9.2624 N.2       1 RES1    0.0000
      6 C1         0.0041    8.5825    5.3405 C.2       1 RES1    0.0000
      7 H1         0.6179    9.3243    5.5279 H         1 RES1    0.0000
      8 C2        -1.1147    7.0323    4.3949 C.ar      1 RES1    0.0000
      9 C3        -1.6654    6.0979    3.5116 C.ar      1 RES1    0.0000
     10 H2        -1.3152    6.0528    2.6031 H         1 RES1    0.0000
     11 C4        -2.6873    5.2980    3.9842 C.ar      1 RES1    0.0000
     12 H3        -3.0743    4.6391    3.3941 H         1 RES1    0.0000
     13 C5        -3.1605    5.4070    5.2990 C.ar      1 RES1    0.0000
     14 H4        -3.9027    4.8380    5.6037 H         1 RES1    0.0000
     15 C6        -2.6210    6.3125    6.1954 C.ar      1 RES1    0.0000
     16 H5        -2.9511    6.3885    7.1148 H         1 RES1    0.0000
     17 C7        -1.5932    7.1174    5.7124 C.ar      1 RES1    0.0000
     18 C8        -0.9760    8.5892    7.6826 C.3       1 RES1    0.0000
     19 H6        -0.5506    9.4628    7.7404 H         1 RES1    0.0000
     20 H7        -1.9321    8.6761    7.8979 H         1 RES1    0.0000
     21 C9        -0.3452    7.6140    8.6541 C.2       1 RES1    0.0000
     22 C10        1.1007    7.5843    8.7728 C.2       1 RES1    0.0000
     23 C11        2.0114    6.9023    9.5218 C.2       1 RES1    0.0000
     24 H8         1.7749    6.2286   10.1960 H         1 RES1    0.0000
     25 C12        3.2991    7.3627    9.1221 C.2       1 RES1    0.0000
     26 H9         4.1429    7.0669    9.4335 H         1 RES1    0.0000
     27 C13        3.0977    8.2798    8.1606 C.2       1 RES1    0.0000
     28 H10        3.6813    8.8075    7.6027 H         1 RES1    0.0000
     29 C14       -1.4736    5.0106   10.6961 C.3       1 RES1    0.0000
     30 H11       -2.1871    4.8238   10.0415 H         1 RES1    0.0000
     31 C15       -2.0410    5.6555   11.9319 C.3       1 RES1    0.0000
     32 H12       -1.3022    5.8983   12.6023 H         1 RES1    0.0000
     33 H13       -2.5570    6.4542   11.6972 H         1 RES1    0.0000
     34 H14       -2.6799    5.0582   12.3810 H         1 RES1    0.0000
     35 C16       -0.6895    3.7519   10.9847 C.3       1 RES1    0.0000
     36 H15       -0.2997    3.3088   10.1065 H         1 RES1    0.0000
     37 H16       -1.2587    3.1401   11.4867 H         1 RES1    0.0000
     38 H17        0.0620    3.9766   11.5772 H         1 RES1    0.0000
@<TRIPOS>BOND
     1    1   22 1
     2    2    5 1
     3    3    6 1
     4    4    6 2
     5    5   21 2
     6    6    7 1
     7    8    4 1
     8    9    8 ar
     9   10    9 1
    10   11    9 ar
    11   12   11 1
    12   13   11 ar
    13   14   13 1
    14   15   13 ar
    15   16   15 1
    16   17    3 1
    17   18    3 1
    18   19   18 1
    19   20   18 1
    20   21   18 1
    21   22   21 1
    22   23   22 2
    23   24   23 1
    24   25   23 1
    25   26   25 1
    26   27    1 1
    27   28   27 1
    28   29    2 1
    29   30   29 1
    30   31   29 1
    31   32   31 1
    32   33   31 1
    33   34   31 1
    34   35   29 1
    35   36   35 1
    36   37   35 1
    37   38   35 1
    38    8   17 ar
    39   15   17 ar
    40   25   27 2
@<TRIPOS>SUBSTRUCTURE
     1 RES1 1

@<TRIPOS>CRYSIN
   8.4290   17.7606   10.6017  90.0000 111.8820  90.0000  14 1

