# MOL2 file generated by ConQuest
# Please check atom types

@<TRIPOS>MOLECULE
YOVJUP01
    18    18     1
SMALL
NO_CHARGES
****
Generated from CSD

@<TRIPOS>ATOM
      1 O1         0.5313    8.9418    3.6191 O.2       1 RES1    0.0000
      2 O2        -0.1944    7.8317    1.9265 O.2       1 RES1    0.0000
      3 N1         1.6633    5.4800    5.5591 N.ar      1 RES1    0.0000
      4 N2         1.2203    7.6931    5.8099 N.pl3     1 RES1    0.0000
      5 H1         1.5485    7.5390    6.6626 H         1 RES1    0.0000
      6 H2         1.1376    8.5605    5.4596 H         1 RES1    0.0000
      7 N3         0.3872    7.8715    3.0054 N.pl3     1 RES1    0.0000
      8 C1         1.2626    6.6389    4.9784 C.ar      1 RES1    0.0000
      9 C2         0.8981    6.6506    3.5932 C.ar      1 RES1    0.0000
     10 C3         1.0418    5.4924    2.7989 C.ar      1 RES1    0.0000
     11 C4         1.4886    4.3516    3.4459 C.ar      1 RES1    0.0000
     12 H3         1.6117    3.5434    2.9612 H         1 RES1    0.0000
     13 C5         1.7561    4.3959    4.8062 C.ar      1 RES1    0.0000
     14 H4         2.0251    3.5880    5.2290 H         1 RES1    0.0000
     15 C6         0.7870    5.4130    1.3140 C.3       1 RES1    0.0000
     16 H5         1.2316    6.1622    0.8656 H         1 RES1    0.0000
     17 H6        -0.1775    5.4565    1.1453 H         1 RES1    0.0000
     18 H7         1.1410    4.5675    0.9666 H         1 RES1    0.0000
@<TRIPOS>BOND
     1    1    7 2
     2    2    7 2
     3    3    8 ar
     4    4    5 1
     5    6    4 1
     6    7    9 1
     7    8    4 1
     8    9    8 ar
     9   10    9 ar
    10   11   10 ar
    11   12   11 1
    12   13    3 ar
    13   14   13 1
    14   15   10 1
    15   16   15 1
    16   17   15 1
    17   18   15 1
    18   11   13 ar
@<TRIPOS>SUBSTRUCTURE
     1 RES1 1

@<TRIPOS>CRYSIN
   7.2170   12.7370    7.3310  90.0000 103.8400  90.0000 231 1

