# MOL2 file generated by ConQuest
# Please check atom types

@<TRIPOS>MOLECULE
YOVKAW
    34    35     1
SMALL
NO_CHARGES
****
Generated from CSD

@<TRIPOS>ATOM
      1 C1         2.4962   -1.3000   15.6068 C.3       1 RES1    0.0000
      2 H1         1.7491   -1.2331   16.2060 H         1 RES1    0.0000
      3 H2         3.2974   -1.0275   16.0614 H         1 RES1    0.0000
      4 H3         2.5899   -2.2091   15.3136 H         1 RES1    0.0000
      5 C2         3.2393   -0.4205   13.5176 C.ar      1 RES1    0.0000
      6 C3         4.3145   -1.2737   13.4320 C.ar      1 RES1    0.0000
      7 H4         4.4218   -1.9525   14.0592 H         1 RES1    0.0000
      8 C4         5.2319   -1.1235   12.4161 C.ar      1 RES1    0.0000
      9 H5         5.9591   -1.6992   12.3642 H         1 RES1    0.0000
     10 C5         5.0830   -0.1349   11.4803 C.ar      1 RES1    0.0000
     11 H6         5.7067   -0.0417   10.7984 H         1 RES1    0.0000
     12 C6         4.0038    0.7243   11.5518 C.ar      1 RES1    0.0000
     13 H7         3.9059    1.3971   10.9176 H         1 RES1    0.0000
     14 C7         3.0679    0.5911   12.5635 C.ar      1 RES1    0.0000
     15 C8         1.3460    2.2162   11.8521 C.2       1 RES1    0.0000
     16 C9         0.1733    3.0343   12.3221 C.3       1 RES1    0.0000
     17 C10       -0.8917    3.2087   11.2249 C.3       1 RES1    0.0000
     18 H8        -0.7648    2.7278   10.3915 H         1 RES1    0.0000
     19 H9        -1.8164    3.3019   11.5027 H         1 RES1    0.0000
     20 C11        0.0323    4.3239   11.5210 C.3       1 RES1    0.0000
     21 H10       -0.3314    5.0986   11.9784 H         1 RES1    0.0000
     22 H11        0.7185    4.5246   10.8671 H         1 RES1    0.0000
     23 C12       -0.3384    3.0294   13.7253 C.2       1 RES1    0.0000
     24 C13       -1.2527    4.1325   14.1939 C.3       1 RES1    0.0000
     25 H12       -1.4909    3.9823   15.1115 H         1 RES1    0.0000
     26 H13       -2.0468    4.1413   13.6537 H         1 RES1    0.0000
     27 H14       -0.8017    4.9764   14.1139 H         1 RES1    0.0000
     28 N1         0.0314    2.0737   14.4839 N.2       1 RES1    0.0000
     29 O1         2.2794   -0.4589   14.4843 O.3       1 RES1    0.0000
     30 O2         1.7125    2.2831   10.6811 O.2       1 RES1    0.0000
     31 O3        -0.5292    2.1460   15.7665 O.3       1 RES1    0.0000
     32 H15       -0.0566    1.6449   16.2621 H         1 RES1    0.0000
     33 N2         1.9639    1.4344   12.7563 N.am      1 RES1    0.0000
     34 H16        1.5709    1.3927   13.5148 H         1 RES1    0.0000
@<TRIPOS>BOND
     1    1    2 1
     2    3    1 1
     3    4    1 1
     4    5    6 ar
     5    6    7 1
     6    8    6 ar
     7    9    8 1
     8   10    8 ar
     9   11   10 1
    10   12   10 ar
    11   13   12 1
    12   14    5 ar
    13   15   16 1
    14   16   17 1
    15   17   18 1
    16   19   17 1
    17   20   16 1
    18   21   20 1
    19   22   20 1
    20   23   16 1
    21   24   23 1
    22   25   24 1
    23   26   24 1
    24   27   24 1
    25   28   23 2
    26   29    1 1
    27   30   15 2
    28   31   28 1
    29   32   31 1
    30   33   14 1
    31   34   33 1
    32    5   29 1
    33   12   14 ar
    34   15   33 1
    35   17   20 1
@<TRIPOS>SUBSTRUCTURE
     1 RES1 1

@<TRIPOS>CRYSIN
  16.0620    5.4830   14.2500  90.0000 100.0550  90.0000  14 1

