# MOL2 file generated by ConQuest
# Please check atom types

@<TRIPOS>MOLECULE
YOVLAX
    71    74     1
SMALL
NO_CHARGES
****
Generated from CSD

@<TRIPOS>ATOM
      1 N1         4.6763   -0.4165    3.2304 N.2       1 RES1    0.0000
      2 N2         3.3747   10.6247    0.7997 N.2       1 RES1    0.0000
      3 O1         5.0979    0.8718    3.5647 O.3       1 RES1    0.0000
      4 O2         2.3402   10.2298    1.6633 O.3       1 RES1    0.0000
      5 O3         3.1739   -2.0427    2.0046 O.3       1 RES1    0.0000
      6 H1         3.4593   -1.3079    2.2288 H         1 RES1    0.0000
      7 O4         4.8559   10.2063   -1.1888 O.3       1 RES1    0.0000
      8 H2         4.2911   10.0228   -0.6233 H         1 RES1    0.0000
      9 C1         4.2016    1.7910    2.9276 C.3       1 RES1    0.0000
     10 H3         3.2966    1.6395    3.2435 H         1 RES1    0.0000
     11 H4         4.2159    1.6519    1.9677 H         1 RES1    0.0000
     12 C2         4.6263    3.2046    3.2481 C.3       1 RES1    0.0000
     13 H5         5.5470    3.3409    2.9723 H         1 RES1    0.0000
     14 H6         4.5716    3.3564    4.2050 H         1 RES1    0.0000
     15 C3         3.7254    4.1802    2.5239 C.3       1 RES1    0.0000
     16 H7         3.8171    4.0290    1.5701 H         1 RES1    0.0000
     17 H8         2.8061    3.9825    2.7620 H         1 RES1    0.0000
     18 C4         3.9820    5.6418    2.8020 C.3       1 RES1    0.0000
     19 H9         3.9116    5.8017    3.7558 H         1 RES1    0.0000
     20 H10        4.8862    5.8637    2.5293 H         1 RES1    0.0000
     21 C5         3.0162    6.5347    2.0786 C.3       1 RES1    0.0000
     22 H11        2.1191    6.3224    2.3829 H         1 RES1    0.0000
     23 H12        3.0586    6.3255    1.1325 H         1 RES1    0.0000
     24 C6         3.2363    8.0232    2.2496 C.3       1 RES1    0.0000
     25 H13        3.2248    8.2439    3.1934 H         1 RES1    0.0000
     26 H14        4.1074    8.2625    1.8952 H         1 RES1    0.0000
     27 C7         2.1705    8.8123    1.5355 C.3       1 RES1    0.0000
     28 H15        2.1811    8.5786    0.5948 H         1 RES1    0.0000
     29 H16        1.3032    8.5662    1.8922 H         1 RES1    0.0000
     30 C8         6.4860   -1.0661    4.7188 C.3       1 RES1    0.0000
     31 H17        6.8751   -0.2200    4.4869 H         1 RES1    0.0000
     32 H18        7.1490   -1.7572    4.6395 H         1 RES1    0.0000
     33 H19        6.1659   -1.0320    5.6233 H         1 RES1    0.0000
     34 C9         5.3507   -1.3593    3.8005 C.2       1 RES1    0.0000
     35 C10        3.8918   -3.0130    2.6225 C.ar      1 RES1    0.0000
     36 C11        4.9357   -2.7338    3.4777 C.ar      1 RES1    0.0000
     37 C12        5.6187   -3.8179    4.0709 C.ar      1 RES1    0.0000
     38 H20        6.3290   -3.6509    4.6480 H         1 RES1    0.0000
     39 C13        5.2508   -5.1174    3.8097 C.ar      1 RES1    0.0000
     40 H21        5.7170   -5.8141    4.2096 H         1 RES1    0.0000
     41 C14        4.1860   -5.4035    2.9530 C.ar      1 RES1    0.0000
     42 C15        3.4901   -4.3531    2.3328 C.ar      1 RES1    0.0000
     43 C16        2.4232   -4.6336    1.4684 C.ar      1 RES1    0.0000
     44 H22        1.9689   -3.9391    1.0478 H         1 RES1    0.0000
     45 C17        2.0558   -5.9195    1.2458 C.ar      1 RES1    0.0000
     46 H23        1.3341   -6.1023    0.6880 H         1 RES1    0.0000
     47 C18        2.7406   -6.9620    1.8367 C.ar      1 RES1    0.0000
     48 H24        2.4746   -7.8379    1.6657 H         1 RES1    0.0000
     49 C19        3.7862   -6.7374    2.6572 C.ar      1 RES1    0.0000
     50 H25        4.2462   -7.4536    3.0301 H         1 RES1    0.0000
     51 C20        2.9655   12.8205    1.7951 C.3       1 RES1    0.0000
     52 H26        2.5207   13.5001    1.2812 H         1 RES1    0.0000
     53 H27        3.6061   13.2305    2.3806 H         1 RES1    0.0000
     54 H28        2.3185   12.3379    2.3151 H         1 RES1    0.0000
     55 C21        3.6669   11.8737    0.8706 C.2       1 RES1    0.0000
     56 C22        5.2483   11.4934   -1.0331 C.ar      1 RES1    0.0000
     57 C23        4.7249   12.3190   -0.0624 C.ar      1 RES1    0.0000
     58 C24        5.2318   13.6554    0.0108 C.ar      1 RES1    0.0000
     59 H29        4.8864   14.2315    0.6549 H         1 RES1    0.0000
     60 C25        6.1817   14.1048   -0.8097 C.ar      1 RES1    0.0000
     61 H30        6.4951   14.9753   -0.7173 H         1 RES1    0.0000
     62 C26        6.7180   13.2739   -1.8190 C.ar      1 RES1    0.0000
     63 C27        6.2509   11.9378   -1.9237 C.ar      1 RES1    0.0000
     64 C28        6.7708   11.1023   -2.9376 C.ar      1 RES1    0.0000
     65 H31        6.4491   10.2336   -3.0285 H         1 RES1    0.0000
     66 C29        7.7406   11.5538   -3.7866 C.ar      1 RES1    0.0000
     67 H32        8.0858   10.9960   -4.4446 H         1 RES1    0.0000
     68 C30        8.2089   12.8586   -3.6603 C.ar      1 RES1    0.0000
     69 H33        8.8742   13.1592   -4.2366 H         1 RES1    0.0000
     70 C31        7.7245   13.6954   -2.7258 C.ar      1 RES1    0.0000
     71 H34        8.0544   14.5631   -2.6726 H         1 RES1    0.0000
@<TRIPOS>BOND
     1    1    3 1
     2    2    4 1
     3    3    9 1
     4    4   27 1
     5    5    6 1
     6    7    8 1
     7    9   10 1
     8   11    9 1
     9   12    9 1
    10   13   12 1
    11   14   12 1
    12   15   12 1
    13   16   15 1
    14   17   15 1
    15   18   15 1
    16   19   18 1
    17   20   18 1
    18   21   18 1
    19   22   21 1
    20   23   21 1
    21   24   21 1
    22   25   24 1
    23   26   24 1
    24   27   24 1
    25   28   27 1
    26   29   27 1
    27   30   31 1
    28   32   30 1
    29   33   30 1
    30   34    1 2
    31   35    5 1
    32   36   34 1
    33   37   36 ar
    34   38   37 1
    35   39   37 ar
    36   40   39 1
    37   41   39 ar
    38   42   35 ar
    39   43   42 ar
    40   44   43 1
    41   45   43 ar
    42   46   45 1
    43   47   45 ar
    44   48   47 1
    45   49   41 ar
    46   50   49 1
    47   51   52 1
    48   53   51 1
    49   54   51 1
    50   55    2 2
    51   56    7 1
    52   57   55 1
    53   58   57 ar
    54   59   58 1
    55   60   58 ar
    56   61   60 1
    57   62   60 ar
    58   63   56 ar
    59   64   63 ar
    60   65   64 1
    61   66   64 ar
    62   67   66 1
    63   68   66 ar
    64   69   68 1
    65   70   62 ar
    66   71   70 1
    67   30   34 1
    68   35   36 ar
    69   41   42 ar
    70   47   49 ar
    71   51   55 1
    72   56   57 ar
    73   62   63 ar
    74   68   70 ar
@<TRIPOS>SUBSTRUCTURE
     1 RES1 1

@<TRIPOS>CRYSIN
  11.1670   30.9920    8.0562  90.0000 106.9990  90.0000   9 1

