# MOL2 file generated by ConQuest
# Please check atom types

@<TRIPOS>MOLECULE
YOWFEX01
    68    72     1
SMALL
NO_CHARGES
****
Generated from CSD

@<TRIPOS>ATOM
      1 O1         8.7024    5.3486    3.1778 O.3       1 RES1    0.0000
      2 N1         8.1465    4.1017    3.6086 N.3       1 RES1    0.0000
      3 C1         7.2972    4.3699    4.7805 C.3       1 RES1    0.0000
      4 H1         7.9281    4.5929    5.4977 H         1 RES1    0.0000
      5 C2         6.6752    3.0589    5.2118 C.ar      1 RES1    0.0000
      6 C3         6.5110    2.0022    4.2597 C.ar      1 RES1    0.0000
      7 C4         6.8197    2.1807    2.8749 C.ar      1 RES1    0.0000
      8 C5         7.4952    3.4834    2.4502 C.3       1 RES1    0.0000
      9 H2         6.7976    4.0962    2.1366 H         1 RES1    0.0000
     10 C6         6.2923    2.8952    6.5246 C.ar      1 RES1    0.0000
     11 C7         5.7619    1.6482    6.9221 C.ar      1 RES1    0.0000
     12 H3         5.5243    1.5241    7.8133 H         1 RES1    0.0000
     13 C8         5.5869    0.6325    6.0571 C.ar      1 RES1    0.0000
     14 H4         5.2391   -0.1753    6.3584 H         1 RES1    0.0000
     15 C9         5.9280    0.7882    4.6994 C.ar      1 RES1    0.0000
     16 C10        5.6524   -0.2073    3.7401 C.ar      1 RES1    0.0000
     17 H5         5.3065   -1.0251    4.0150 H         1 RES1    0.0000
     18 C11        5.8838    0.0087    2.4254 C.ar      1 RES1    0.0000
     19 H6         5.6598   -0.6540    1.8131 H         1 RES1    0.0000
     20 C12        6.4544    1.2107    1.9565 C.ar      1 RES1    0.0000
     21 C13        6.4137    3.9952    7.5429 C.3       1 RES1    0.0000
     22 H7         5.9078    3.7653    8.3256 H         1 RES1    0.0000
     23 H8         6.0756    4.8139    7.1719 H         1 RES1    0.0000
     24 H9         7.3367    4.1102    7.7814 H         1 RES1    0.0000
     25 C14        6.5737    1.3727    0.4623 C.3       1 RES1    0.0000
     26 H10        6.0237    0.7200    0.0250 H         1 RES1    0.0000
     27 H11        7.4889    1.2497    0.1999 H         1 RES1    0.0000
     28 H12        6.2854    2.2542    0.2124 H         1 RES1    0.0000
     29 C15        6.3838    5.6030    4.6695 C.ar      1 RES1    0.0000
     30 C16        5.0845    5.5834    4.1099 C.ar      1 RES1    0.0000
     31 C17        4.3931    6.7766    3.9854 C.ar      1 RES1    0.0000
     32 H13        3.5447    6.7510    3.6054 H         1 RES1    0.0000
     33 C18        4.8801    7.9911    4.3870 C.ar      1 RES1    0.0000
     34 C19        6.1136    7.9898    4.9934 C.ar      1 RES1    0.0000
     35 H14        6.4494    8.7933    5.3213 H         1 RES1    0.0000
     36 C20        6.8824    6.8352    5.1381 C.ar      1 RES1    0.0000
     37 C21        8.5382    3.3570    1.3455 C.ar      1 RES1    0.0000
     38 C22        9.6406    2.4973    1.4698 C.ar      1 RES1    0.0000
     39 C23       10.5772    2.4506    0.4549 C.ar      1 RES1    0.0000
     40 H15       11.3074    1.8826    0.5498 H         1 RES1    0.0000
     41 C24       10.4755    3.2094   -0.6918 C.ar      1 RES1    0.0000
     42 C25        9.3843    4.0509   -0.7969 C.ar      1 RES1    0.0000
     43 H16        9.2938    4.5730   -1.5618 H         1 RES1    0.0000
     44 C26        8.4192    4.1480    0.1962 C.ar      1 RES1    0.0000
     45 C27        4.3572    4.3470    3.6429 C.3       1 RES1    0.0000
     46 H17        4.3731    3.6850    4.3384 H         1 RES1    0.0000
     47 H18        4.7890    3.9984    2.8599 H         1 RES1    0.0000
     48 H19        3.4479    4.5709    3.4346 H         1 RES1    0.0000
     49 C28        4.1042    9.2746    4.1552 C.3       1 RES1    0.0000
     50 H20        3.5930    9.1975    3.3458 H         1 RES1    0.0000
     51 H21        4.7165   10.0102    4.0788 H         1 RES1    0.0000
     52 H22        3.5107    9.4274    4.8951 H         1 RES1    0.0000
     53 C29        8.2446    6.9854    5.7961 C.3       1 RES1    0.0000
     54 H23        8.3726    7.8987    6.0613 H         1 RES1    0.0000
     55 H24        8.9306    6.7348    5.1728 H         1 RES1    0.0000
     56 H25        8.2916    6.4173    6.5680 H         1 RES1    0.0000
     57 C30        9.8413    1.5908    2.6680 C.3       1 RES1    0.0000
     58 H26       10.7604    1.3183    2.7127 H         1 RES1    0.0000
     59 H27        9.2818    0.8154    2.5795 H         1 RES1    0.0000
     60 H28        9.6081    2.0639    3.4707 H         1 RES1    0.0000
     61 C31       11.5152    3.1460   -1.7812 C.3       1 RES1    0.0000
     62 H29       11.8445    2.2475   -1.8575 H         1 RES1    0.0000
     63 H30       12.2417    3.7356   -1.5646 H         1 RES1    0.0000
     64 H31       11.1226    3.4157   -2.6142 H         1 RES1    0.0000
     65 C32        7.2669    5.1090   -0.0416 C.3       1 RES1    0.0000
     66 H32        7.4386    5.6251   -0.8316 H         1 RES1    0.0000
     67 H33        7.1787    5.6953    0.7122 H         1 RES1    0.0000
     68 H34        6.4539    4.6114   -0.1555 H         1 RES1    0.0000
@<TRIPOS>BOND
     1    1    2 1
     2    2    3 1
     3    3    4 1
     4    5    3 1
     5    6    5 ar
     6    7    6 ar
     7    8    2 1
     8    9    8 1
     9   10    5 ar
    10   11   10 ar
    11   12   11 1
    12   13   11 ar
    13   14   13 1
    14   15    6 ar
    15   16   15 ar
    16   17   16 1
    17   18   16 ar
    18   19   18 1
    19   20    7 ar
    20   21   10 1
    21   22   21 1
    22   23   21 1
    23   24   21 1
    24   25   20 1
    25   26   25 1
    26   27   25 1
    27   28   25 1
    28   29    3 1
    29   30   29 ar
    30   31   30 ar
    31   32   31 1
    32   33   31 ar
    33   34   33 ar
    34   35   34 1
    35   36   29 ar
    36   37    8 1
    37   38   37 ar
    38   39   38 ar
    39   40   39 1
    40   41   39 ar
    41   42   41 ar
    42   43   42 1
    43   44   37 ar
    44   45   30 1
    45   46   45 1
    46   47   45 1
    47   48   45 1
    48   49   33 1
    49   50   49 1
    50   51   49 1
    51   52   49 1
    52   53   36 1
    53   54   53 1
    54   55   53 1
    55   56   53 1
    56   57   38 1
    57   58   57 1
    58   59   57 1
    59   60   57 1
    60   61   41 1
    61   62   61 1
    62   63   61 1
    63   64   61 1
    64   65   44 1
    65   66   65 1
    66   67   65 1
    67   68   65 1
    68    7    8 1
    69   13   15 ar
    70   18   20 ar
    71   34   36 ar
    72   42   44 ar
@<TRIPOS>SUBSTRUCTURE
     1 RES1 1

@<TRIPOS>CRYSIN
   7.7360   12.2850   14.6430  71.8200  88.3100  73.5500   2 1

