# MOL2 file generated by ConQuest
# Please check atom types

@<TRIPOS>MOLECULE
YOWLOM
    29    28     2
SMALL
USER_CHARGES
****
Generated from CSD

@<TRIPOS>ATOM
      1 N1         4.9492    1.6508    1.4563 N.ar      1 RES1    0.0000
      2 N2         5.2227    1.6508    3.8477 N.ar      1 RES1    0.0000
      3 N3         3.0953    1.6508    2.8754 N.pl3     1 RES1    1.0000
      4 N4         2.0241    1.6508    5.5781 N.pl3     1 RES1    0.0000
      5 C1         3.3401    1.6508    5.2554 C.2       1 RES1   -1.0000
      6 C2         3.6659    1.6508    1.6463 C.ar      1 RES1    0.0000
      7 O1         1.1654    1.6508    4.6614 O.2       1 RES1    0.0000
      8 N5         7.0326    1.6508    2.4294 N.3       1 RES1    0.0000
      9 C3         5.7105    1.6508    2.5829 C.ar      1 RES1    0.0000
     10 N6         4.2414    1.6508    6.3907 N.pl3     1 RES1    0.0000
     11 C4         7.9446    1.6508    3.5622 C.3       1 RES1    0.0000
     12 O2         2.7877    1.6507    0.6754 O.3       1 RES1    0.0000
     13 C5         7.6657    1.6508    1.1058 C.3       1 RES1    0.0000
     14 C6         3.9095    1.6508    3.9684 C.ar      1 RES1    0.0000
     15 O3         1.6890    1.6508    6.7773 O.2       1 RES1    0.0000
     16 C7         3.3185    1.6507   -0.6749 C.3       1 RES1    0.0000
     17 O4         4.4322    2.8538    6.8458 O.2       1 RES1    0.0000
     18 O5         4.7746    0.7600    6.8107 Du        2 SUP2    0.0000
     19 H1         2.1974    1.6508    3.0962 H         1 RES1    0.0000
     20 H2         7.4367    1.6508    4.3775 H         1 RES1    0.0000
     21 H3         8.4982    2.4345    3.5298 H         1 RES1    0.0000
     22 H4         8.4982    0.8670    3.5298 H         1 RES1    0.0000
     23 H5         6.9901    1.6507    0.4238 H         1 RES1    0.0000
     24 H6         8.2128    0.8670    1.0144 H         1 RES1    0.0000
     25 H7         8.2128    2.4345    1.0144 H         1 RES1    0.0000
     26 H8         2.5906    1.6507   -1.3009 H         1 RES1    0.0000
     27 H9         3.8562    0.8670   -0.8099 H         1 RES1    0.0000
     28 H10        3.8562    2.4345   -0.8099 H         1 RES1    0.0000
     29 O4C        4.4322    0.4477    6.8458 O.2       1 RES1    0.0000
@<TRIPOS>BOND
     1    1    6 ar
     2    2    9 ar
     3    3    6 ar
     4    4    5 1
     5    5   10 1
     6    6   12 1
     7    7    4 2
     8    8    9 1
     9    9    1 ar
    10   10   17 2
    11   11    8 1
    12   12   16 1
    13   13    8 1
    14   14    2 ar
    15   15    4 2
    16   16   26 1
    17   19    3 1
    18   20   11 1
    19   21   11 1
    20   22   11 1
    21   23   13 1
    22   24   13 1
    23   25   13 1
    24   27   16 1
    25   28   16 1
    26   29   10 2
    27    3   14 ar
    28    5   14 1
@<TRIPOS>SUBSTRUCTURE
     1 RES1 1
     2 SUP2 18

@<TRIPOS>CRYSIN
   9.6510    6.6030    9.8770  90.0000 117.4300  90.0000  11 1

