# MOL2 file generated by ConQuest
# Please check atom types

@<TRIPOS>MOLECULE
YOWXAK
    34    35     1
SMALL
NO_CHARGES
****
Generated from CSD

@<TRIPOS>ATOM
      1 N1        -1.4243    5.7332   -0.4219 N.pl3     1 RES1    0.0000
      2 O1        -2.0808    5.0896   -1.2996 O.2       1 RES1    0.0000
      3 C1        -1.8411    5.7586    1.0206 C.3       1 RES1    0.0000
      4 O2         1.2972    7.5045    0.6579 O.2       1 RES1    0.0000
      5 N2         0.1894    6.8806    0.5135 N.pl3     1 RES1    0.0000
      6 C2        -1.6191    4.3446    1.5462 C.3       1 RES1    0.0000
      7 H1        -2.1797    3.7443    1.0631 H         1 RES1    0.0000
      8 H2        -1.8129    4.2930    2.4866 H         1 RES1    0.0000
      9 H3        -0.7075    4.0087    1.4483 H         1 RES1    0.0000
     10 N3         1.2523    5.4139   -2.2438 N.pl3     1 RES1    0.0000
     11 O3         1.4719    4.4563   -1.3918 O.2       1 RES1    0.0000
     12 C3        -3.3072    6.1439    1.0831 C.3       1 RES1    0.0000
     13 H4        -3.4497    6.9894    0.6352 H         1 RES1    0.0000
     14 H5        -3.5904    6.2268    1.9934 H         1 RES1    0.0000
     15 H6        -3.7956    5.4423    0.6149 H         1 RES1    0.0000
     16 C4        -0.8433    6.8192    1.6013 C.3       1 RES1    0.0000
     17 C5        -0.1659    6.4393    2.9038 C.3       1 RES1    0.0000
     18 H7         0.4803    7.1425    3.1365 H         1 RES1    0.0000
     19 H8         0.3542    5.6153    2.7997 H         1 RES1    0.0000
     20 H9        -0.7918    6.4131    3.6050 H         1 RES1    0.0000
     21 C6        -1.4198    8.2298    1.6927 C.3       1 RES1    0.0000
     22 H10       -0.7116    8.7777    1.8976 H         1 RES1    0.0000
     23 H11       -1.8650    8.4218    0.8593 H         1 RES1    0.0000
     24 H12       -2.0630    8.2863    2.4326 H         1 RES1    0.0000
     25 C7        -0.2491    6.3345   -0.6185 C.2       1 RES1    0.0000
     26 C8         0.4058    6.4304   -1.9242 C.ar      1 RES1    0.0000
     27 C9         1.8533    5.4169   -3.4627 C.ar      1 RES1    0.0000
     28 H13        2.4120    4.7073   -3.5915 H         1 RES1    0.0000
     29 C10        1.6277    6.4277   -4.3594 C.ar      1 RES1    0.0000
     30 H14        2.0400    6.4142   -5.1862 H         1 RES1    0.0000
     31 C11        0.7749    7.4574   -4.0493 C.ar      1 RES1    0.0000
     32 H15        0.6772    8.1882   -4.6861 H         1 RES1    0.0000
     33 C12        0.1607    7.4487   -2.8194 C.ar      1 RES1    0.0000
     34 H16       -0.4313    8.1287   -2.5869 H         1 RES1    0.0000
@<TRIPOS>BOND
     1    1    2 1
     2    3    1 1
     3    4    5 1
     4    5   16 1
     5    6    3 1
     6    7    6 1
     7    8    6 1
     8    9    6 1
     9   10   11 1
    10   12    3 1
    11   13   12 1
    12   14   12 1
    13   15   12 1
    14   16    3 1
    15   17   16 1
    16   18   17 1
    17   19   17 1
    18   20   17 1
    19   21   16 1
    20   22   21 1
    21   23   21 1
    22   24   21 1
    23   25    1 1
    24   26   10 ar
    25   27   10 ar
    26   28   27 1
    27   29   27 ar
    28   30   29 1
    29   31   29 ar
    30   32   31 1
    31   33   26 ar
    32   34   33 1
    33    5   25 2
    34   25   26 1
    35   31   33 ar
@<TRIPOS>SUBSTRUCTURE
     1 RES1 1

@<TRIPOS>CRYSIN
  10.4190   11.0190   11.2620  90.0000  90.0000  90.0000  19 1

