# MOL2 file generated by ConQuest
# Please check atom types

@<TRIPOS>MOLECULE
YOWXOY
    52    55     1
SMALL
NO_CHARGES
****
Generated from CSD

@<TRIPOS>ATOM
      1 N1         3.5707    0.7100    0.1085 N.pl3     1 RES1    0.0000
      2 O1         2.3733    1.0434   -0.1767 O.2       1 RES1    0.0000
      3 C1         3.9547   -0.6542    0.5756 C.3       1 RES1    0.0000
      4 C2         3.5490   -0.6804    2.0625 C.3       1 RES1    0.0000
      5 H1         2.5911   -0.6895    2.1325 H         1 RES1    0.0000
      6 H2         3.8938    0.0990    2.5016 H         1 RES1    0.0000
      7 H3         3.9073   -1.4689    2.4772 H         1 RES1    0.0000
      8 C3         3.1867   -1.6919   -0.1767 C.3       1 RES1    0.0000
      9 H4         3.4479   -1.6760   -1.1004 H         1 RES1    0.0000
     10 H5         2.2473   -1.5076   -0.1067 H         1 RES1    0.0000
     11 H6         3.3715   -2.5578    0.1924 H         1 RES1    0.0000
     12 C4         5.4681   -0.6349    0.3534 C.3       1 RES1    0.0000
     13 C5         5.8975   -1.1924   -0.9902 C.3       1 RES1    0.0000
     14 H7         6.8534   -1.1526   -1.0636 H         1 RES1    0.0000
     15 H8         5.5011   -0.6736   -1.6952 H         1 RES1    0.0000
     16 H9         5.6085   -2.1049   -1.0654 H         1 RES1    0.0000
     17 C6         6.3228   -1.2277    1.4293 C.3       1 RES1    0.0000
     18 H10        6.0421   -0.8898    2.2830 H         1 RES1    0.0000
     19 H11        7.2406   -0.9887    1.2771 H         1 RES1    0.0000
     20 H12        6.2341   -2.1834    1.4188 H         1 RES1    0.0000
     21 N2         5.7272    0.8511    0.2782 N.pl3     1 RES1    0.0000
     22 O2         6.8875    1.3472    0.3586 O.2       1 RES1    0.0000
     23 C7         4.6082    1.5292    0.0787 C.2       1 RES1    0.0000
     24 C8         4.5793    2.9913   -0.0595 C.ar      1 RES1    0.0000
     25 N3         4.3594    3.6523    1.1004 N.pl3     1 RES1    0.0000
     26 O3         4.1581    3.0322    2.1850 O.2       1 RES1    0.0000
     27 C9         4.4410    5.0257    1.0776 C.ar      1 RES1    0.0000
     28 C10        4.2541    5.7709    2.3407 C.ar      1 RES1    0.0000
     29 C11        3.1475    5.5946    3.1472 C.ar      1 RES1    0.0000
     30 H13        2.5095    4.9528    2.9337 H         1 RES1    0.0000
     31 C12        2.9916    6.3831    4.2790 C.ar      1 RES1    0.0000
     32 H14        2.2287    6.2863    4.8021 H         1 RES1    0.0000
     33 C13        3.9393    7.2933    4.6377 C.ar      1 RES1    0.0000
     34 H15        3.8360    7.8053    5.4074 H         1 RES1    0.0000
     35 C14        5.0459    7.4435    3.8469 C.ar      1 RES1    0.0000
     36 H16        5.6931    8.0670    4.0831 H         1 RES1    0.0000
     37 C15        5.2183    6.6925    2.7116 C.ar      1 RES1    0.0000
     38 H17        5.9822    6.8018    2.1937 H         1 RES1    0.0000
     39 N4         4.6887    5.6890   -0.0210 N.ar      1 RES1    0.0000
     40 N5         4.8518    5.0552   -1.2018 N.ar      1 RES1    0.0000
     41 C16        4.7899    3.7365   -1.2158 C.ar      1 RES1    0.0000
     42 C17        4.9881    3.0425   -2.5016 C.ar      1 RES1    0.0000
     43 C18        6.0359    3.3963   -3.3169 C.ar      1 RES1    0.0000
     44 H18        6.6212    4.0619   -3.0370 H         1 RES1    0.0000
     45 C19        6.2434    2.7876   -4.5414 C.ar      1 RES1    0.0000
     46 H19        6.9691    3.0277   -5.0715 H         1 RES1    0.0000
     47 C20        5.3649    1.8273   -4.9578 C.ar      1 RES1    0.0000
     48 H20        5.4743    1.4268   -5.7905 H         1 RES1    0.0000
     49 C21        4.3212    1.4530   -4.1496 C.ar      1 RES1    0.0000
     50 H21        3.7400    0.7805   -4.4207 H         1 RES1    0.0000
     51 C22        4.1416    2.0719   -2.9477 C.ar      1 RES1    0.0000
     52 H22        3.4190    1.8250   -2.4159 H         1 RES1    0.0000
@<TRIPOS>BOND
     1    1    2 1
     2    3    1 1
     3    4    3 1
     4    5    4 1
     5    6    4 1
     6    7    4 1
     7    8    3 1
     8    9    8 1
     9   10    8 1
    10   11    8 1
    11   12    3 1
    12   13   12 1
    13   14   13 1
    14   15   13 1
    15   16   13 1
    16   17   12 1
    17   18   17 1
    18   19   17 1
    19   20   17 1
    20   21   12 1
    21   22   21 1
    22   23    1 1
    23   24   23 1
    24   25   24 ar
    25   26   25 1
    26   27   25 ar
    27   28   27 1
    28   29   28 ar
    29   30   29 1
    30   31   29 ar
    31   32   31 1
    32   33   31 ar
    33   34   33 1
    34   35   33 ar
    35   36   35 1
    36   37   28 ar
    37   38   37 1
    38   39   27 ar
    39   40   39 ar
    40   41   24 ar
    41   42   41 1
    42   43   42 ar
    43   44   43 1
    44   45   43 ar
    45   46   45 1
    46   47   45 ar
    47   48   47 1
    48   49   47 ar
    49   50   49 1
    50   51   42 ar
    51   52   51 1
    52   21   23 2
    53   35   37 ar
    54   40   41 ar
    55   49   51 ar
@<TRIPOS>SUBSTRUCTURE
     1 RES1 1

@<TRIPOS>CRYSIN
  10.3230   11.3780   17.4940  90.0000  90.0000  90.0000  19 1

