# MOL2 file generated by ConQuest
# Please check atom types

@<TRIPOS>MOLECULE
YOWXUE
    40    42     1
SMALL
NO_CHARGES
****
Generated from CSD

@<TRIPOS>ATOM
      1 O1         9.1401    4.2560    4.3869 O.2       1 RES1    0.0000
      2 N1         8.0205    3.7944    3.9756 N.pl3     1 RES1    0.0000
      3 C1         6.8240    4.6911    3.7301 C.3       1 RES1    0.0000
      4 C2         6.6398    5.6858    4.8571 C.3       1 RES1    0.0000
      5 C3         7.1463    5.4302    2.4373 C.3       1 RES1    0.0000
      6 C4         5.7036    3.6159    3.5708 C.3       1 RES1    0.0000
      7 C5         5.0305    3.2395    4.8986 C.3       1 RES1    0.0000
      8 C6         4.6651    3.9244    2.5027 C.3       1 RES1    0.0000
      9 N2         6.5135    2.4348    3.1595 N.pl3     1 RES1    0.0000
     10 O2         5.9776    1.3906    2.6391 O.2       1 RES1    0.0000
     11 C7         7.7935    2.5591    3.5174 C.2       1 RES1    0.0000
     12 C8         8.7891    1.5035    3.3570 C.ar      1 RES1    0.0000
     13 C9         8.7460    0.2843    4.0934 C.ar      1 RES1    0.0000
     14 C10        7.7495    0.0161    5.0524 C.ar      1 RES1    0.0000
     15 C11        7.7627   -1.1788    5.7223 C.ar      1 RES1    0.0000
     16 C12        8.7586   -2.1320    5.4877 C.ar      1 RES1    0.0000
     17 C13        9.7461   -1.8983    4.5767 C.ar      1 RES1    0.0000
     18 C14        9.7538   -0.6896    3.8567 C.ar      1 RES1    0.0000
     19 C15       10.7379   -0.3972    2.8715 C.ar      1 RES1    0.0000
     20 C16       10.7042    0.7667    2.1907 C.ar      1 RES1    0.0000
     21 N3         9.7311    1.7118    2.4198 N.pl3     1 RES1    0.0000
     22 O3         9.7065    2.7951    1.7041 O.2       1 RES1    0.0000
     23 H1        11.3184    0.9900    1.5492 H         1 RES1    0.0000
     24 H2        10.5082   -2.4521    4.4185 H         1 RES1    0.0000
     25 H3         7.1019    0.6101    5.2586 H         1 RES1    0.0000
     26 H4        11.4154   -1.0476    2.6838 H         1 RES1    0.0000
     27 H5         5.8814    6.2740    4.5822 H         1 RES1    0.0000
     28 H6         4.1230    4.7545    2.7384 H         1 RES1    0.0000
     29 H7         7.4914    6.2395    4.8986 H         1 RES1    0.0000
     30 H8         6.4006    6.1244    2.1711 H         1 RES1    0.0000
     31 H9         4.0884    3.2118    2.4329 H         1 RES1    0.0000
     32 H10        6.9984   -1.3930    6.3060 H         1 RES1    0.0000
     33 H11        4.5138    3.9141    5.1386 H         1 RES1    0.0000
     34 H12        5.1035    4.0868    1.6365 H         1 RES1    0.0000
     35 H13        7.3157    4.7660    1.6801 H         1 RES1    0.0000
     36 H14        7.9215    5.9287    2.5966 H         1 RES1    0.0000
     37 H15        4.5233    2.4060    4.7131 H         1 RES1    0.0000
     38 H16        5.7533    3.0737    5.5968 H         1 RES1    0.0000
     39 H17        8.6609   -2.9471    5.9132 H         1 RES1    0.0000
     40 H18        6.5208    5.2264    5.6404 H         1 RES1    0.0000
@<TRIPOS>BOND
     1    1    2 1
     2    2    3 1
     3    3    4 1
     4    4   27 1
     5    5    3 1
     6    6    3 1
     7    7    6 1
     8    8    6 1
     9    9    6 1
    10   10    9 1
    11   11    2 1
    12   12   11 1
    13   13   12 ar
    14   14   13 ar
    15   15   14 ar
    16   16   15 ar
    17   17   16 ar
    18   18   13 ar
    19   19   18 ar
    20   20   19 ar
    21   21   12 ar
    22   22   21 1
    23   23   20 1
    24   24   17 1
    25   25   14 1
    26   26   19 1
    27   28    8 1
    28   29    4 1
    29   30    5 1
    30   31    8 1
    31   32   15 1
    32   33    7 1
    33   34    8 1
    34   35    5 1
    35   36    5 1
    36   37    7 1
    37   38    7 1
    38   39   16 1
    39   40    4 1
    40    9   11 2
    41   17   18 ar
    42   20   21 ar
@<TRIPOS>SUBSTRUCTURE
     1 RES1 1

@<TRIPOS>CRYSIN
  12.2430   11.5120   11.6240  90.0000 110.1870  90.0000  14 1

