# MOL2 file generated by ConQuest
# Please check atom types

@<TRIPOS>MOLECULE
YOWXEO
    43    45     1
SMALL
NO_CHARGES
****
Generated from CSD

@<TRIPOS>ATOM
      1 O1         3.7761    2.7359   -1.0969 O.2       1 RES1    0.0000
      2 N1         2.6628    3.2332   -1.4466 N.pl3     1 RES1    0.0000
      3 C1         1.3778    2.4871   -1.3233 C.3       1 RES1    0.0000
      4 O2         0.6489    5.8151   -2.3756 O.2       1 RES1    0.0000
      5 N2         1.1745    4.7022   -2.0468 N.pl3     1 RES1    0.0000
      6 C2         1.5505    1.1082   -1.9048 C.3       1 RES1    0.0000
      7 H1         2.2296    0.6713   -1.3167 H         1 RES1    0.0000
      8 H2         1.8106    1.2344   -2.8309 H         1 RES1    0.0000
      9 H3         0.7103    0.7011   -1.9641 H         1 RES1    0.0000
     10 O3         3.1688    5.9728    0.2075 O.2       1 RES1    0.0000
     11 N3         3.8422    6.2102   -0.8732 N.pl3     1 RES1    0.0000
     12 C3         1.1279    2.4111    0.1778 C.3       1 RES1    0.0000
     13 H4         0.9641    3.3938    0.4938 H         1 RES1    0.0000
     14 H5         1.8772    1.9206    0.5047 H         1 RES1    0.0000
     15 H6         0.3402    1.9095    0.2524 H         1 RES1    0.0000
     16 C4         0.4112    3.4176   -2.0639 C.3       1 RES1    0.0000
     17 C5         0.2413    3.0749   -3.5288 C.3       1 RES1    0.0000
     18 H7         1.1129    2.9518   -3.9359 H         1 RES1    0.0000
     19 H8        -0.2270    3.7947   -3.9776 H         1 RES1    0.0000
     20 H9        -0.2716    2.2544   -3.6122 H         1 RES1    0.0000
     21 C6        -0.9264    3.6194   -1.4089 C.3       1 RES1    0.0000
     22 H10       -0.7928    3.8823   -0.4170 H         1 RES1    0.0000
     23 H11       -1.3596    2.8213   -1.3716 H         1 RES1    0.0000
     24 H12       -1.4714    4.2702   -1.9422 H         1 RES1    0.0000
     25 C7         2.4598    4.4977   -1.8039 C.2       1 RES1    0.0000
     26 C8         3.5155    5.4841   -1.9838 C.ar      1 RES1    0.0000
     27 C9         4.8290    7.1517   -0.9458 C.ar      1 RES1    0.0000
     28 C10        5.1564    8.0273    0.2030 C.ar      1 RES1    0.0000
     29 C11        4.6912    7.8966    1.4923 C.ar      1 RES1    0.0000
     30 H13        4.1222    7.1194    1.7337 H         1 RES1    0.0000
     31 C12        5.0701    8.8165    2.4348 C.ar      1 RES1    0.0000
     32 H14        4.7606    8.7902    3.2918 H         1 RES1    0.0000
     33 C13        5.9055    9.8400    2.0881 C.ar      1 RES1    0.0000
     34 H15        6.1063   10.4871    2.6883 H         1 RES1    0.0000
     35 C14        6.3361    9.8954    0.7955 C.ar      1 RES1    0.0000
     36 H16        6.9478   10.5654    0.5157 H         1 RES1    0.0000
     37 N4         5.9910    9.0192   -0.1443 N.ar      1 RES1    0.0000
     38 C15        5.4952    7.2886   -2.1484 C.ar      1 RES1    0.0000
     39 H17        6.1244    7.9418   -2.1506 H         1 RES1    0.0000
     40 C16        5.1638    6.5833   -3.2600 C.ar      1 RES1    0.0000
     41 H18        5.6128    6.7017   -4.0599 H         1 RES1    0.0000
     42 C17        4.1474    5.6702   -3.1733 C.ar      1 RES1    0.0000
     43 H19        3.8851    5.1167   -3.9282 H         1 RES1    0.0000
@<TRIPOS>BOND
     1    1    2 1
     2    2    3 1
     3    3    6 1
     4    4    5 1
     5    5   16 1
     6    6    7 1
     7    8    6 1
     8    9    6 1
     9   10   11 1
    10   11   26 ar
    11   12    3 1
    12   13   12 1
    13   14   12 1
    14   15   12 1
    15   16    3 1
    16   17   16 1
    17   18   17 1
    18   19   17 1
    19   20   17 1
    20   21   16 1
    21   22   21 1
    22   23   21 1
    23   24   21 1
    24   25    2 1
    25   26   25 1
    26   27   11 ar
    27   28   27 1
    28   29   28 ar
    29   30   29 1
    30   31   29 ar
    31   32   31 1
    32   33   31 ar
    33   34   33 1
    34   35   33 ar
    35   36   35 1
    36   37   28 ar
    37   38   27 ar
    38   39   38 1
    39   40   38 ar
    40   41   40 1
    41   42   26 ar
    42   43   42 1
    43    5   25 2
    44   35   37 ar
    45   40   42 ar
@<TRIPOS>SUBSTRUCTURE
     1 RES1 1

@<TRIPOS>CRYSIN
   7.8740   18.6470   10.9760  90.0000  91.4250  90.0000  14 1

