# MOL2 file generated by ConQuest
# Please check atom types

@<TRIPOS>MOLECULE
YOWYIT
    62    65     1
SMALL
NO_CHARGES
****
Generated from CSD

@<TRIPOS>ATOM
      1 O1         0.6198    0.2596    4.9240 O.2       1 RES1    0.0000
      2 N1         1.4732    1.1995    5.0127 N.pl3     1 RES1    0.0000
      3 C1         1.7914    1.8707    6.3241 C.3       1 RES1    0.0000
      4 C2         2.1137    0.8172    7.3663 C.3       1 RES1    0.0000
      5 H1         1.2717    0.3114    7.6082 H         1 RES1    0.0000
      6 H2         2.3654    1.2510    8.1530 H         1 RES1    0.0000
      7 H3         2.7912    0.2135    7.0634 H         1 RES1    0.0000
      8 C3         0.5458    2.6366    6.7044 C.3       1 RES1    0.0000
      9 H4        -0.2001    1.9805    6.8689 H         1 RES1    0.0000
     10 H5         0.2966    3.3085    6.0385 H         1 RES1    0.0000
     11 H6         0.6809    3.0635    7.5679 H         1 RES1    0.0000
     12 C4         2.9950    2.7638    5.9222 C.3       1 RES1    0.0000
     13 C5         4.3509    2.0803    6.0613 C.3       1 RES1    0.0000
     14 H7         4.9900    2.5527    5.6199 H         1 RES1    0.0000
     15 H8         4.2985    1.1145    5.6356 H         1 RES1    0.0000
     16 H9         4.6119    2.0015    6.9828 H         1 RES1    0.0000
     17 C6         2.9984    4.1361    6.5550 C.3       1 RES1    0.0000
     18 H10        3.6163    4.6049    6.1752 H         1 RES1    0.0000
     19 H11        3.0855    4.0241    7.4453 H         1 RES1    0.0000
     20 H12        2.1619    4.7064    6.3416 H         1 RES1    0.0000
     21 N2         2.7856    2.8707    4.4374 N.pl3     1 RES1    0.0000
     22 O2         3.4219    3.6924    3.7070 O.2       1 RES1    0.0000
     23 C7         2.0272    1.8621    3.9875 C.2       1 RES1    0.0000
     24 C8         1.8355    1.5577    2.5722 C.ar      1 RES1    0.0000
     25 C9         1.3960    2.5374    1.6674 C.ar      1 RES1    0.0000
     26 C10        0.9600    3.8573    2.1185 C.2       1 RES1    0.0000
     27 O3        -0.6896    3.0999    3.5757 O.2       1 RES1    0.0000
     28 N3        -0.0597    4.0292    2.9755 N.3       1 RES1    0.0000
     29 C11       -0.4851    5.4682    3.0184 C.3       1 RES1    0.0000
     30 C12       -0.9247    5.8199    4.4267 C.3       1 RES1    0.0000
     31 H13       -0.2392    5.6442    5.1048 H         1 RES1    0.0000
     32 H14       -1.6857    5.2768    4.6423 H         1 RES1    0.0000
     33 H15       -1.1627    6.7762    4.4672 H         1 RES1    0.0000
     34 C13       -1.6612    5.5625    2.0479 C.3       1 RES1    0.0000
     35 H16       -1.3883    5.3730    1.1001 H         1 RES1    0.0000
     36 H17       -2.0141    6.4333    2.0531 H         1 RES1    0.0000
     37 H18       -2.3850    4.9374    2.3282 H         1 RES1    0.0000
     38 C14        0.8015    6.1745    2.5065 C.3       1 RES1    0.0000
     39 C15        1.7665    6.5818    3.6068 C.3       1 RES1    0.0000
     40 H19        2.6120    6.8374    3.2041 H         1 RES1    0.0000
     41 H20        1.9395    5.8454    4.2639 H         1 RES1    0.0000
     42 H21        1.3631    7.4271    4.0712 H         1 RES1    0.0000
     43 C16        0.5625    7.3441    1.5698 C.3       1 RES1    0.0000
     44 H22        0.0617    7.0509    0.7463 H         1 RES1    0.0000
     45 H23        1.4267    7.6405    1.2946 H         1 RES1    0.0000
     46 H24        0.1183    8.0254    2.0146 H         1 RES1    0.0000
     47 O4         2.4738    5.2240    0.9956 O.2       1 RES1    0.0000
     48 N4         1.4652    5.0439    1.7509 N.pl3     1 RES1    0.0000
     49 O5         0.7988    3.1370   -0.4688 O.2       1 RES1    0.0000
     50 N5         1.2542    2.2615    0.3609 N.pl3     1 RES1    0.0000
     51 C17        1.5581    0.9723   -0.0979 C.ar      1 RES1    0.0000
     52 C18        1.4012    0.6496   -1.4465 C.ar      1 RES1    0.0000
     53 H25        1.0549    1.2422   -2.0006 H         1 RES1    0.0000
     54 C19        1.6936   -0.6108   -1.8767 C.ar      1 RES1    0.0000
     55 H26        1.5680   -0.7698   -2.7714 H         1 RES1    0.0000
     56 C20        2.1335   -1.5795   -0.9849 C.ar      1 RES1    0.0000
     57 H27        2.3505   -2.4704   -1.2613 H         1 RES1    0.0000
     58 C21        2.2807   -1.2947    0.3425 C.ar      1 RES1    0.0000
     59 H28        2.5651   -1.9088    0.9775 H         1 RES1    0.0000
     60 C22        1.9892   -0.0072    0.8020 C.ar      1 RES1    0.0000
     61 N6         2.1545    0.3055    2.1633 N.pl3     1 RES1    0.0000
     62 O6         2.6288   -0.5630    2.9711 O.2       1 RES1    0.0000
@<TRIPOS>BOND
     1    1    2 1
     2    2    3 1
     3    3    4 1
     4    4    5 1
     5    6    4 1
     6    7    4 1
     7    8    3 1
     8    9    8 1
     9   10    8 1
    10   11    8 1
    11   12    3 1
    12   13   12 1
    13   14   13 1
    14   15   13 1
    15   16   13 1
    16   17   12 1
    17   18   17 1
    18   19   17 1
    19   20   17 1
    20   21   12 1
    21   22   21 1
    22   23    2 1
    23   24   23 1
    24   25   24 ar
    25   26   25 1
    26   27   28 1
    27   28   26 1
    28   29   28 1
    29   30   29 1
    30   31   30 1
    31   32   30 1
    32   33   30 1
    33   34   29 1
    34   35   34 1
    35   36   34 1
    36   37   34 1
    37   38   29 1
    38   39   38 1
    39   40   39 1
    40   41   39 1
    41   42   39 1
    42   43   38 1
    43   44   43 1
    44   45   43 1
    45   46   43 1
    46   47   48 1
    47   48   26 2
    48   49   50 1
    49   50   25 ar
    50   51   50 ar
    51   52   51 ar
    52   53   52 1
    53   54   52 ar
    54   55   54 1
    55   56   54 ar
    56   57   56 1
    57   58   56 ar
    58   59   58 1
    59   60   51 ar
    60   61   24 ar
    61   62   61 1
    62   21   23 2
    63   38   48 1
    64   58   60 ar
    65   60   61 ar
@<TRIPOS>SUBSTRUCTURE
     1 RES1 1

@<TRIPOS>CRYSIN
   7.3405   17.4960   17.5960  90.0000  95.3880  90.0000  14 1

