# MOL2 file generated by ConQuest
# Please check atom types

@<TRIPOS>MOLECULE
YOWYUE
    81    84     1
SMALL
NO_CHARGES
****
Generated from CSD

@<TRIPOS>ATOM
      1 C1        -0.8825    7.1610    9.1106 C.3       1 RES1    0.0000
      2 H1        -0.9920    8.0561    8.7529 H         1 RES1    0.0000
      3 H2        -1.6712    6.6483    8.8750 H         1 RES1    0.0000
      4 C2        -0.7734    7.2412   10.6394 C.3       1 RES1    0.0000
      5 H3         0.0001    7.7690   10.8915 H         1 RES1    0.0000
      6 H4        -1.5656    7.6608   11.0090 H         1 RES1    0.0000
      7 C3        -0.6377    5.8462   11.1641 C.2       1 RES1    0.0000
      8 N1        -1.5343    5.2590   11.8547 N.2       1 RES1    0.0000
      9 O1        -2.6337    6.0804   12.1596 O.3       1 RES1    0.0000
     10 H5        -3.2142    5.6350   12.5304 H         1 RES1    0.0000
     11 C4         0.5814    5.0557   10.7102 C.3       1 RES1    0.0000
     12 C5         0.4790    3.5869   11.1431 C.3       1 RES1    0.0000
     13 H6         1.3070    3.1387   10.9542 H         1 RES1    0.0000
     14 H7        -0.2330    3.1601   10.6608 H         1 RES1    0.0000
     15 H8         0.2993    3.5425   12.0859 H         1 RES1    0.0000
     16 C6         1.8471    5.6407   11.3855 C.3       1 RES1    0.0000
     17 H9         2.6288    5.2168   11.0231 H         1 RES1    0.0000
     18 H10        1.8071    5.4832   12.3313 H         1 RES1    0.0000
     19 H11        1.8899    6.5860   11.2207 H         1 RES1    0.0000
     20 C7         0.5932    5.1208    9.1424 C.3       1 RES1    0.0000
     21 H12       -0.1713    4.5737    8.8653 H         1 RES1    0.0000
     22 C8         1.8020    4.4413    8.5126 C.3       1 RES1    0.0000
     23 H13        2.5813    5.0120    8.6014 H         1 RES1    0.0000
     24 H14        1.9841    3.6063    8.9714 H         1 RES1    0.0000
     25 C9         1.5309    4.1706    7.0445 C.3       1 RES1    0.0000
     26 H15        2.3804    4.0431    6.5936 H         1 RES1    0.0000
     27 H16        1.0353    3.3399    6.9720 H         1 RES1    0.0000
     28 C10        0.7758    5.2311    6.3333 C.2       1 RES1    0.0000
     29 C11        0.1546    6.2637    6.9616 C.2       1 RES1    0.0000
     30 C12        0.3523    6.5093    8.4671 C.3       1 RES1    0.0000
     31 C13       -0.6415    7.2956    6.1940 C.3       1 RES1    0.0000
     32 H17       -0.2371    8.1621    6.3556 H         1 RES1    0.0000
     33 H18       -1.5345    7.3214    6.5721 H         1 RES1    0.0000
     34 C14       -0.7808    7.1188    4.6727 C.3       1 RES1    0.0000
     35 H19       -1.6608    7.4166    4.3944 H         1 RES1    0.0000
     36 H20       -0.1219    7.6709    4.2239 H         1 RES1    0.0000
     37 C15       -0.5857    5.6593    4.2558 C.3       1 RES1    0.0000
     38 C16        0.7765    5.1681    4.8219 C.3       1 RES1    0.0000
     39 C17        1.9800    6.0267    4.3669 C.3       1 RES1    0.0000
     40 H21        1.8207    6.9462    4.5939 H         1 RES1    0.0000
     41 H22        2.0892    5.9458    3.4174 H         1 RES1    0.0000
     42 H23        2.7761    5.7209    4.8080 H         1 RES1    0.0000
     43 C18        0.9162    3.7968    4.1519 C.3       1 RES1    0.0000
     44 H24        0.3935    3.1265    4.6201 H         1 RES1    0.0000
     45 H25        1.8439    3.5146    4.1272 H         1 RES1    0.0000
     46 C19        0.3669    4.0288    2.7204 C.3       1 RES1    0.0000
     47 H26       -0.2274    3.3055    2.4667 H         1 RES1    0.0000
     48 H27        1.0965    4.0667    2.0823 H         1 RES1    0.0000
     49 C20       -0.4038    5.3786    2.7389 C.3       1 RES1    0.0000
     50 H28        0.1987    6.0654    2.3838 H         1 RES1    0.0000
     51 C21       -1.7452    4.8136    4.8140 C.3       1 RES1    0.0000
     52 H29       -1.7104    3.9328    4.4338 H         1 RES1    0.0000
     53 H30       -2.5815    5.2275    4.5865 H         1 RES1    0.0000
     54 H31       -1.6673    4.7535    5.7688 H         1 RES1    0.0000
     55 C22        1.5307    7.4947    8.5818 C.3       1 RES1    0.0000
     56 H32        2.3277    7.0815    8.2404 H         1 RES1    0.0000
     57 H33        1.6612    7.7310    9.5030 H         1 RES1    0.0000
     58 H34        1.3376    8.2853    8.0727 H         1 RES1    0.0000
     59 C23       -1.6414    5.3285    1.8169 C.3       1 RES1    0.0000
     60 H35       -2.1930    4.5522    2.0482 H         1 RES1    0.0000
     61 C24       -1.1960    5.2268    0.3414 C.3       1 RES1    0.0000
     62 H36       -0.7269    6.0417    0.1018 H         1 RES1    0.0000
     63 H37       -0.5691    4.4921    0.2563 H         1 RES1    0.0000
     64 C25       -2.3434    5.0113   -0.6516 C.3       1 RES1    0.0000
     65 H38       -3.0809    5.5935   -0.4104 H         1 RES1    0.0000
     66 H39       -2.0433    5.2669   -1.5380 H         1 RES1    0.0000
     67 C26       -2.8330    3.6070   -0.6950 C.2       1 RES1    0.0000
     68 H40       -2.2018    2.9704   -0.9423 H         1 RES1    0.0000
     69 C27       -4.0423    3.1380   -0.4305 C.2       1 RES1    0.0000
     70 C28       -4.3448    1.6707   -0.6269 C.3       1 RES1    0.0000
     71 H41       -5.0397    1.5718   -1.2813 H         1 RES1    0.0000
     72 H42       -4.6326    1.2890    0.2051 H         1 RES1    0.0000
     73 H43       -3.5536    1.2181   -0.9296 H         1 RES1    0.0000
     74 C29       -5.1793    3.9514    0.0808 C.3       1 RES1    0.0000
     75 H44       -5.4253    3.6435    0.9565 H         1 RES1    0.0000
     76 H45       -5.9294    3.8619   -0.5119 H         1 RES1    0.0000
     77 H46       -4.9170    4.8738    0.1287 H         1 RES1    0.0000
     78 C30       -2.4522    6.5903    1.9732 C.2       1 RES1    0.0000
     79 O2        -2.0373    7.6945    1.6831 O.2       1 RES1    0.0000
     80 O3        -3.6608    6.3883    2.4793 O.3       1 RES1    0.0000
     81 H47       -4.0620    7.1016    2.5223 H         1 RES1    0.0000
@<TRIPOS>BOND
     1    1    2 1
     2    3    1 1
     3    4    1 1
     4    5    4 1
     5    6    4 1
     6    7    4 1
     7    8    7 2
     8    9    8 1
     9   10    9 1
    10   11    7 1
    11   12   11 1
    12   13   12 1
    13   14   12 1
    14   15   12 1
    15   16   11 1
    16   17   16 1
    17   18   16 1
    18   19   16 1
    19   20   11 1
    20   21   20 1
    21   22   20 1
    22   23   22 1
    23   24   22 1
    24   25   22 1
    25   26   25 1
    26   27   25 1
    27   28   25 1
    28   29   28 2
    29   30    1 1
    30   31   29 1
    31   32   31 1
    32   33   31 1
    33   34   31 1
    34   35   34 1
    35   36   34 1
    36   37   34 1
    37   38   28 1
    38   39   38 1
    39   40   39 1
    40   41   39 1
    41   42   39 1
    42   43   38 1
    43   44   43 1
    44   45   43 1
    45   46   43 1
    46   47   46 1
    47   48   46 1
    48   49   37 1
    49   50   49 1
    50   51   37 1
    51   52   51 1
    52   53   51 1
    53   54   51 1
    54   55   30 1
    55   56   55 1
    56   57   55 1
    57   58   55 1
    58   59   49 1
    59   60   59 1
    60   61   59 1
    61   62   61 1
    62   63   61 1
    63   64   61 1
    64   65   64 1
    65   66   64 1
    66   67   64 1
    67   68   67 1
    68   69   67 2
    69   70   69 1
    70   71   70 1
    71   72   70 1
    72   73   70 1
    73   74   69 1
    74   75   74 1
    75   76   74 1
    76   77   74 1
    77   78   59 1
    78   79   78 2
    79   80   78 1
    80   81   80 1
    81   20   30 1
    82   29   30 1
    83   37   38 1
    84   46   49 1
@<TRIPOS>SUBSTRUCTURE
     1 RES1 1

@<TRIPOS>CRYSIN
  12.9950    7.1610   16.1870  90.0000 112.3700  90.0000   4 1

