# MOL2 file generated by ConQuest
# Please check atom types

@<TRIPOS>MOLECULE
YOXMAB
    58    63     1
SMALL
NO_CHARGES
****
Generated from CSD

@<TRIPOS>ATOM
      1 C1         2.3801    9.2729   19.8892 C.3       1 RES1    0.0000
      2 C2         1.9453    7.8186   19.9322 C.3       1 RES1    0.0000
      3 H1         1.9992    7.4183   19.0192 H         1 RES1    0.0000
      4 C3         0.5166    7.7120   20.4666 C.3       1 RES1    0.0000
      5 H2        -0.1024    8.1955   19.8653 H         1 RES1    0.0000
      6 H3         0.2413    6.7607   20.4962 H         1 RES1    0.0000
      7 C4         0.4408    8.3098   21.8685 C.3       1 RES1    0.0000
      8 H4        -0.4940    8.2280   22.2122 H         1 RES1    0.0000
      9 C5         1.3935    7.5638   22.8020 C.3       1 RES1    0.0000
     10 H5         1.1409    6.6086   22.8479 H         1 RES1    0.0000
     11 H6         1.3343    7.9433   23.7131 H         1 RES1    0.0000
     12 C6         2.8282    7.6990   22.2758 C.3       1 RES1    0.0000
     13 H7         3.4578    7.2233   22.8909 H         1 RES1    0.0000
     14 C7         3.1972    9.1910   22.2098 C.3       1 RES1    0.0000
     15 H8         3.1321    9.5913   23.1108 H         1 RES1    0.0000
     16 H9         4.1307    9.2898   21.8967 H         1 RES1    0.0000
     17 C8         2.2591    9.9123   21.2629 C.3       1 RES1    0.0000
     18 H10        2.5124   10.8779   21.2084 H         1 RES1    0.0000
     19 C9         0.8104    9.7823   21.7624 C.3       1 RES1    0.0000
     20 H11        0.7214   10.2151   22.6472 H         1 RES1    0.0000
     21 H12        0.1968   10.2372   21.1319 H         1 RES1    0.0000
     22 C10        2.9080    7.0869   20.8863 C.3       1 RES1    0.0000
     23 H13        2.6680    6.1278   20.9312 H         1 RES1    0.0000
     24 H14        3.8341    7.1571   20.5440 H         1 RES1    0.0000
     25 C11        3.7484   10.4126   18.4236 C.3       1 RES1    0.0000
     26 C12        4.8533   11.3900   18.7358 C.3       1 RES1    0.0000
     27 H15        5.7110   10.9013   18.8089 H         1 RES1    0.0000
     28 H16        4.6718   11.8214   19.6071 H         1 RES1    0.0000
     29 C13        4.9763   12.4687   17.6512 C.3       1 RES1    0.0000
     30 H17        4.1572   13.0249   17.6378 H         1 RES1    0.0000
     31 H18        5.7455   13.0587   17.8529 H         1 RES1    0.0000
     32 C14        5.1758   11.8162   16.2775 C.3       1 RES1    0.0000
     33 H19        5.2363   12.5154   15.5825 H         1 RES1    0.0000
     34 H20        6.0201   11.2990   16.2708 H         1 RES1    0.0000
     35 C15        4.0130   10.8961   15.9792 C.3       1 RES1    0.0000
     36 H21        3.1693   11.4289   15.9171 H         1 RES1    0.0000
     37 C16        3.8581    9.8096   17.0317 C.3       1 RES1    0.0000
     38 H22        4.6386    9.2014   16.9973 H         1 RES1    0.0000
     39 H23        3.0463    9.2768   16.8396 H         1 RES1    0.0000
     40 C17        4.0775   10.8233   13.5802 C.2       1 RES1    0.0000
     41 C18        4.2377    9.9136   12.4019 C.ar      1 RES1    0.0000
     42 C19        4.0854   10.4620   11.1314 C.ar      1 RES1    0.0000
     43 H24        3.8807   11.3848   11.0368 H         1 RES1    0.0000
     44 C20        4.2324    9.6666   10.0082 C.ar      1 RES1    0.0000
     45 H25        4.1180   10.0279    9.1392 H         1 RES1    0.0000
     46 C21        4.5488    8.3319   10.1869 C.ar      1 RES1    0.0000
     47 C22        4.7077    7.7562   11.4383 C.ar      1 RES1    0.0000
     48 H26        4.9265    6.8361   11.5291 H         1 RES1    0.0000
     49 C23        4.5395    8.5607   12.5539 C.ar      1 RES1    0.0000
     50 H27        4.6299    8.1903   13.4220 H         1 RES1    0.0000
     51 N1         4.7343    7.4900    8.9972 N.pl3     1 RES1    0.0000
     52 O1         1.6056    9.9582   18.8959 O.3       1 RES1    0.0000
     53 O2         2.4958   11.0873   18.5991 O.3       1 RES1    0.0000
     54 O3         3.7211    9.3658   19.3954 O.3       1 RES1    0.0000
     55 O4         4.2184   10.1536   14.7350 O.3       1 RES1    0.0000
     56 O5         3.8448   12.0069   13.4913 O.2       1 RES1    0.0000
     57 O6         5.4271    6.4831    9.1062 O.2       1 RES1    0.0000
     58 O7         4.1918    7.8375    7.9566 O.2       1 RES1    0.0000
@<TRIPOS>BOND
     1    1    2 1
     2    2    3 1
     3    4    2 1
     4    5    4 1
     5    6    4 1
     6    7    4 1
     7    8    7 1
     8    9    7 1
     9   10    9 1
    10   11    9 1
    11   12    9 1
    12   13   12 1
    13   14   12 1
    14   15   14 1
    15   16   14 1
    16   17    1 1
    17   18   17 1
    18   19    7 1
    19   20   19 1
    20   21   19 1
    21   22    2 1
    22   23   22 1
    23   24   22 1
    24   25   26 1
    25   26   27 1
    26   28   26 1
    27   29   26 1
    28   30   29 1
    29   31   29 1
    30   32   29 1
    31   33   32 1
    32   34   32 1
    33   35   32 1
    34   36   35 1
    35   37   25 1
    36   38   37 1
    37   39   37 1
    38   40   41 1
    39   41   42 ar
    40   42   43 1
    41   44   42 ar
    42   45   44 1
    43   46   44 ar
    44   47   46 ar
    45   48   47 1
    46   49   41 ar
    47   50   49 1
    48   51   46 1
    49   52    1 1
    50   53   25 1
    51   54    1 1
    52   55   35 1
    53   56   40 2
    54   57   51 2
    55   58   51 2
    56   12   22 1
    57   14   17 1
    58   17   19 1
    59   25   54 1
    60   35   37 1
    61   40   55 1
    62   47   49 ar
    63   52   53 1
@<TRIPOS>SUBSTRUCTURE
     1 RES1 1

@<TRIPOS>CRYSIN
   6.6484   12.9963   47.7990  90.0000  90.0000  90.0000  61 1

