# MOL2 file generated by ConQuest
# Please check atom types

@<TRIPOS>MOLECULE
YUBMAK
    27    27     1
SMALL
NO_CHARGES
****
Generated from CSD

@<TRIPOS>ATOM
      1 O1         2.6918    5.2832    9.1278 O.3       1 RES1    0.0000
      2 O2         6.7705    4.7610    9.0686 O.3       1 RES1    0.0000
      3 C1         3.9749    4.6623    9.0635 C.3       1 RES1    0.0000
      4 H1         4.4558    4.8192    9.9032 H         1 RES1    0.0000
      5 C2         4.1675    5.6628    6.7684 C.ar      1 RES1    0.0000
      6 H2         3.2405    5.6247    6.7015 H         1 RES1    0.0000
      7 C3         6.1768    5.2579    7.9625 C.ar      1 RES1    0.0000
      8 O3         2.9867    2.9753   11.1297 O.2       1 RES1    0.0000
      9 C4         4.7838    5.2132    7.9108 C.ar      1 RES1    0.0000
     10 C5         6.8999    5.8048    6.9104 C.ar      1 RES1    0.0000
     11 H3         7.8260    5.8572    6.9692 H         1 RES1    0.0000
     12 C6         4.9050    6.1688    5.7221 C.ar      1 RES1    0.0000
     13 N1         4.2013    6.6182    4.5277 N.pl3     1 RES1    0.0000
     14 C7         3.7427    3.1820    8.8858 C.3       1 RES1    0.0000
     15 H4         3.2009    3.0519    8.0918 H         1 RES1    0.0000
     16 H5         4.5992    2.7565    8.7255 H         1 RES1    0.0000
     17 C8         3.0752    2.4823   10.0311 C.2       1 RES1    0.0000
     18 C9         6.2668    6.2677    5.7883 C.ar      1 RES1    0.0000
     19 H6         6.7517    6.6407    5.0876 H         1 RES1    0.0000
     20 O4         4.8421    7.1497    3.6438 O.2       1 RES1    0.0000
     21 O5         2.9921    6.4516    4.4686 O.2       1 RES1    0.0000
     22 C10        2.5383    1.1229    9.7391 C.3       1 RES1    0.0000
     23 H7         2.3604    0.6647   10.5639 H         1 RES1    0.0000
     24 H8         3.1838    0.6268    9.2296 H         1 RES1    0.0000
     25 H9         1.7253    1.2012    9.2350 H         1 RES1    0.0000
     26 H10        7.5949    4.8756    9.0353 H         1 RES1    0.0000
     27 H11        2.7153    6.0360    9.4844 H         1 RES1    0.0000
@<TRIPOS>BOND
     1    1    3 1
     2    2    7 1
     3    3    4 1
     4    5    6 1
     5    7    9 ar
     6    8   17 2
     7    9    3 1
     8   10    7 ar
     9   11   10 1
    10   12    5 ar
    11   13   12 1
    12   14    3 1
    13   15   14 1
    14   16   14 1
    15   17   14 1
    16   18   10 ar
    17   19   18 1
    18   20   13 2
    19   21   13 2
    20   22   17 1
    21   23   22 1
    22   24   22 1
    23   25   22 1
    24   26    2 1
    25   27    1 1
    26    5    9 ar
    27   12   18 ar
@<TRIPOS>SUBSTRUCTURE
     1 RES1 1

@<TRIPOS>CRYSIN
   6.7320    7.8550   10.9960  79.0850  84.3190  64.6450   2 1

