# MOL2 file generated by ConQuest
# Please check atom types

@<TRIPOS>MOLECULE
YUBWIB
    48    49     1
SMALL
NO_CHARGES
****
Generated from CSD

@<TRIPOS>ATOM
      1 O1         4.1067    1.5512    3.2398 O.2       1 RES1    0.0000
      2 O2         1.4495    4.5469    5.5276 O.2       1 RES1    0.0000
      3 O3         6.5570    7.6653    1.4404 O.2       1 RES1    0.0000
      4 N1         3.2591    2.0429    4.0531 N.3       1 RES1    0.0000
      5 N2         1.9917    3.4602    5.1210 N.pl3     1 RES1    0.0000
      6 N3         5.3005    7.6687    1.3784 N.3       1 RES1    0.0000
      7 C1         3.5271    4.4516    3.4223 C.ar      1 RES1    0.0000
      8 C2         2.8027    5.6121    3.1889 C.ar      1 RES1    0.0000
      9 C3         3.3297    6.6558    2.4835 C.ar      1 RES1    0.0000
     10 C4         4.6312    6.5876    2.0092 C.ar      1 RES1    0.0000
     11 C5         5.3670    5.4236    2.2178 C.ar      1 RES1    0.0000
     12 C6         4.8162    4.3709    2.9057 C.ar      1 RES1    0.0000
     13 C7         2.9502    3.3466    4.1773 C.2       1 RES1    0.0000
     14 C8         4.6470    8.8100    0.6557 C.3       1 RES1    0.0000
     15 C9         4.1168    9.8036    1.6664 C.3       1 RES1    0.0000
     16 C10        5.7260    9.4720   -0.1788 C.3       1 RES1    0.0000
     17 C11        3.5422    8.2899   -0.2384 C.3       1 RES1    0.0000
     18 C12        1.7358    2.1747    5.8462 C.3       1 RES1    0.0000
     19 C13        2.3403    1.1560    4.8429 C.3       1 RES1    0.0000
     20 C14        3.1376    0.0238    5.4538 C.3       1 RES1    0.0000
     21 C15        1.3149    0.5996    3.8569 C.3       1 RES1    0.0000
     22 C16        0.2604    2.0429    6.1120 C.3       1 RES1    0.0000
     23 C17        2.4969    2.2712    7.1551 C.3       1 RES1    0.0000
     24 H1         1.9350    5.6780    3.5018 H         1 RES1    0.0000
     25 H2         2.8521    7.4041    2.3097 H         1 RES1    0.0000
     26 H3         6.2943    5.3827    1.8626 H         1 RES1    0.0000
     27 H4         5.3710    3.5999    3.0547 H         1 RES1    0.0000
     28 H5         4.8344   10.1307    2.2575 H         1 RES1    0.0000
     29 H6         3.7026   10.5577    1.2865 H         1 RES1    0.0000
     30 H7         3.4755    9.3823    2.2724 H         1 RES1    0.0000
     31 H8         6.4489    9.7718    0.3601 H         1 RES1    0.0000
     32 H9         6.0714    8.8361   -0.8196 H         1 RES1    0.0000
     33 H10        5.3750   10.2136   -0.6706 H         1 RES1    0.0000
     34 H11        3.0932    9.0189   -0.7128 H         1 RES1    0.0000
     35 H12        3.8544    7.6778   -0.8841 H         1 RES1    0.0000
     36 H13        2.8462    7.8527    0.2806 H         1 RES1    0.0000
     37 H14        2.5575   -0.5678    5.9381 H         1 RES1    0.0000
     38 H15        3.5597   -0.4974    4.7560 H         1 RES1    0.0000
     39 H16        3.8002    0.3566    6.0300 H         1 RES1    0.0000
     40 H17        0.8351    1.3162    3.4422 H         1 RES1    0.0000
     41 H18        1.7602    0.0999    3.1715 H         1 RES1    0.0000
     42 H19        0.7006    0.0318    4.3015 H         1 RES1    0.0000
     43 H20       -0.0578    2.7572    6.6434 H         1 RES1    0.0000
     44 H21       -0.2266    2.0168    5.2899 H         1 RES1    0.0000
     45 H22        0.0816    1.2128    6.5814 H         1 RES1    0.0000
     46 H23        2.3649    1.4717    7.6716 H         1 RES1    0.0000
     47 H24        3.4246    2.3779    6.9911 H         1 RES1    0.0000
     48 H25        2.1809    3.0116    7.6667 H         1 RES1    0.0000
@<TRIPOS>BOND
     1    1    4 1
     2    2    5 1
     3    3    6 1
     4    4   13 1
     5    5   13 2
     6    6   10 1
     7    7    8 ar
     8    8    9 ar
     9    9   10 ar
    10   10   11 ar
    11   11   12 ar
    12   12    7 ar
    13   13    7 1
    14   14    6 1
    15   15   14 1
    16   16   14 1
    17   17   14 1
    18   18    5 1
    19   19    4 1
    20   20   19 1
    21   21   19 1
    22   22   18 1
    23   23   18 1
    24   24    8 1
    25   25    9 1
    26   26   11 1
    27   27   12 1
    28   28   15 1
    29   29   15 1
    30   30   15 1
    31   31   16 1
    32   32   16 1
    33   33   16 1
    34   34   17 1
    35   35   17 1
    36   36   17 1
    37   37   20 1
    38   38   20 1
    39   39   20 1
    40   40   21 1
    41   41   21 1
    42   42   21 1
    43   43   22 1
    44   44   22 1
    45   45   22 1
    46   46   23 1
    47   47   23 1
    48   48   23 1
    49   18   19 1
@<TRIPOS>SUBSTRUCTURE
     1 RES1 1

@<TRIPOS>CRYSIN
   6.1550   11.3560   24.9950  90.0000  96.4800  90.0000 231 1

