# MOL2 file generated by ConQuest
# Please check atom types

@<TRIPOS>MOLECULE
YUCGUA
    47    49     1
SMALL
NO_CHARGES
****
Generated from CSD

@<TRIPOS>ATOM
      1 O1         3.0101    0.9210   -5.4081 O.3       1 RES1    0.0000
      2 O2         2.8435    1.8851   -6.5259 O.3       1 RES1    0.0000
      3 O3         4.6829    2.2439   -4.5021 O.3       1 RES1    0.0000
      4 O4         2.4899   -2.1821    0.7013 O.2       1 RES1    0.0000
      5 O5         4.5320   -2.6414    0.2540 O.2       1 RES1    0.0000
      6 O6         3.5362    3.1710  -10.3924 O.3       1 RES1    0.0000
      7 O7         2.9925    0.2814  -15.9807 O.3       1 RES1    0.0000
      8 O8         4.6142    1.7388  -16.4989 O.2       1 RES1    0.0000
      9 O9         4.3442    1.2709   -9.4917 O.2       1 RES1    0.0000
     10 N1         3.5120   -2.0184    0.0486 N.pl3     1 RES1    0.0000
     11 C1         4.1754    2.3619   -6.8468 C.3       1 RES1    0.0000
     12 H1         4.7747    1.5830   -7.0295 H         1 RES1    0.0000
     13 C2         4.6807    3.1130   -5.6520 C.3       1 RES1    0.0000
     14 H2         5.5982    3.4400   -5.8262 H         1 RES1    0.0000
     15 H3         4.1002    3.8959   -5.4778 H         1 RES1    0.0000
     16 C3         3.4091    1.7062   -4.2858 C.3       1 RES1    0.0000
     17 H4         2.7463    2.4344   -4.1164 H         1 RES1    0.0000
     18 C4         3.4554    0.7527   -3.1234 C.ar      1 RES1    0.0000
     19 C5         2.2760    0.4440   -2.4512 C.ar      1 RES1    0.0000
     20 H5         1.4607    0.8542   -2.7146 H         1 RES1    0.0000
     21 C6         2.2869   -0.4613   -1.3986 C.ar      1 RES1    0.0000
     22 H6         1.4879   -0.6806   -0.9359 H         1 RES1    0.0000
     23 C7         3.4899   -1.0314   -1.0469 C.ar      1 RES1    0.0000
     24 C8         4.6771   -0.7411   -1.6871 C.ar      1 RES1    0.0000
     25 H7         5.4915   -1.1485   -1.4140 H         1 RES1    0.0000
     26 C9         4.6467    0.1630   -2.7369 C.ar      1 RES1    0.0000
     27 H8         5.4502    0.3797   -3.1967 H         1 RES1    0.0000
     28 C10        4.0279    3.1873   -8.0886 C.2       1 RES1    0.0000
     29 C11        3.9945    2.4125   -9.3649 C.2       1 RES1    0.0000
     30 C12        3.6078    2.6407  -11.6945 C.ar      1 RES1    0.0000
     31 C13        2.7140    1.6769  -12.1050 C.ar      1 RES1    0.0000
     32 H9         2.0758    1.3175  -11.5025 H         1 RES1    0.0000
     33 C14        2.7671    1.2424  -13.4201 C.ar      1 RES1    0.0000
     34 H10        2.1644    0.5729  -13.7228 H         1 RES1    0.0000
     35 C15        3.6989    1.7814  -14.3030 C.ar      1 RES1    0.0000
     36 C16        3.8245    1.3004  -15.7068 C.2       1 RES1    0.0000
     37 C17        3.1783   -0.3519  -17.2760 C.3       1 RES1    0.0000
     38 H11        3.0473    0.3110  -17.9851 H         1 RES1    0.0000
     39 H12        2.5268   -1.0761  -17.3814 H         1 RES1    0.0000
     40 H13        4.0862   -0.7177  -17.3327 H         1 RES1    0.0000
     41 C18        4.5848    2.7536  -13.8630 C.ar      1 RES1    0.0000
     42 H14        5.2167    3.1271  -14.4642 H         1 RES1    0.0000
     43 C19        4.5500    3.1831  -12.5405 C.ar      1 RES1    0.0000
     44 H15        5.1633    3.8374  -12.2277 H         1 RES1    0.0000
     45 C20        3.9864    4.5100   -8.1040 C.2       1 RES1    0.0000
     46 H16        3.9352    4.9738   -8.9297 H         1 RES1    0.0000
     47 H17        4.0076    4.9952   -7.2888 H         1 RES1    0.0000
@<TRIPOS>BOND
     1    1    2 1
     2    2   11 1
     3    3   13 1
     4    4   10 2
     5    5   10 2
     6    6   29 1
     7    7   36 1
     8    8   36 2
     9    9   29 2
    10   10   23 1
    11   11   12 1
    12   13   11 1
    13   14   13 1
    14   15   13 1
    15   16    1 1
    16   17   16 1
    17   18   16 1
    18   19   18 ar
    19   20   19 1
    20   21   19 ar
    21   22   21 1
    22   23   21 ar
    23   24   23 ar
    24   25   24 1
    25   26   18 ar
    26   27   26 1
    27   28   11 1
    28   29   28 1
    29   30    6 1
    30   31   30 ar
    31   32   31 1
    32   33   31 ar
    33   34   33 1
    34   35   33 ar
    35   36   35 1
    36   37    7 1
    37   38   37 1
    38   39   37 1
    39   40   37 1
    40   41   35 ar
    41   42   41 1
    42   43   30 ar
    43   44   43 1
    44   45   28 2
    45   46   45 1
    46   47   45 1
    47    3   16 1
    48   24   26 ar
    49   41   43 ar
@<TRIPOS>SUBSTRUCTURE
     1 RES1 1

@<TRIPOS>CRYSIN
  10.0669    9.2847   40.5160  90.0000  90.0000  90.0000  61 1

