# MOL2 file generated by ConQuest
# Please check atom types

@<TRIPOS>MOLECULE
YUDMAL
    27    29     1
SMALL
NO_CHARGES
****
Generated from CSD

@<TRIPOS>ATOM
      1 O1         1.1615    5.9467   10.8476 O.3       1 RES1    0.0000
      2 N1         1.6112    6.4166   12.1068 N.2       1 RES1    0.0000
      3 C1         2.6505    5.7574   12.4615 C.2       1 RES1    0.0000
      4 C2         3.0980    4.7479   11.4429 C.3       1 RES1    0.0000
      5 C3         1.9054    4.7244   10.5177 C.3       1 RES1    0.0000
      6 C4         0.9127    3.5981   10.8102 C.2       1 RES1    0.0000
      7 O2         0.3165    3.2205    9.6755 O.3       1 RES1    0.0000
      8 C5         0.8184    3.9955    8.5511 C.3       1 RES1    0.0000
      9 C6         2.1086    4.6257    9.0282 C.3       1 RES1    0.0000
     10 O3         0.6268    3.1318   11.8744 O.2       1 RES1    0.0000
     11 C7         3.3190    6.0182   13.7394 C.ar      1 RES1    0.0000
     12 C8         2.7960    6.9317   14.6605 C.ar      1 RES1    0.0000
     13 C9         3.4311    7.1219   15.8658 C.ar      1 RES1    0.0000
     14 C10        4.5748    6.4265   16.1935 C.ar      1 RES1    0.0000
     15 C11        5.0956    5.5365   15.2932 C.ar      1 RES1    0.0000
     16 C12        4.4821    5.3337   14.0693 C.ar      1 RES1    0.0000
     17 H1         3.2540    3.8796   11.8454 H         1 RES1    0.0000
     18 H2         3.9008    5.0386   10.9824 H         1 RES1    0.0000
     19 H3         0.1793    4.6791    8.2959 H         1 RES1    0.0000
     20 H4         0.9816    3.4206    7.7877 H         1 RES1    0.0000
     21 H5         2.8715    4.0652    8.8146 H         1 RES1    0.0000
     22 H6         2.2375    5.5021    8.6320 H         1 RES1    0.0000
     23 H7         2.0231    7.4080   14.4593 H         1 RES1    0.0000
     24 H8         3.0808    7.7330   16.4736 H         1 RES1    0.0000
     25 H9         4.9879    6.5605   17.0171 H         1 RES1    0.0000
     26 H10        5.8679    5.0639   15.5069 H         1 RES1    0.0000
     27 H11        4.8519    4.7343   13.4614 H         1 RES1    0.0000
@<TRIPOS>BOND
     1    1    2 1
     2    2    3 2
     3    3    4 1
     4    4    5 1
     5    5    1 1
     6    6    5 1
     7    7    6 1
     8    8    7 1
     9    9    5 1
    10   10    6 2
    11   11    3 1
    12   12   11 ar
    13   13   12 ar
    14   14   13 ar
    15   15   14 ar
    16   16   11 ar
    17   17    4 1
    18   18    4 1
    19   19    8 1
    20   20    8 1
    21   21    9 1
    22   22    9 1
    23   23   12 1
    24   24   13 1
    25   25   14 1
    26   26   15 1
    27   27   16 1
    28    8    9 1
    29   15   16 ar
@<TRIPOS>SUBSTRUCTURE
     1 RES1 1

@<TRIPOS>CRYSIN
   5.5520    9.0540   20.7450  90.0000  90.0000  90.0000  19 1

