# MOL2 file generated by ConQuest
# Please check atom types

@<TRIPOS>MOLECULE
YUDMOZ
    52    57     1
SMALL
USER_CHARGES
****
Generated from CSD

@<TRIPOS>ATOM
      1 O1         7.3335    0.3039    2.2530 O.2       1 RES1   -1.0000
      2 O2         4.0043    0.6456    1.4466 O.2       1 RES1    0.0000
      3 O3         2.2923   -0.5044    2.0753 O.2       1 RES1    0.0000
      4 N1         6.2757   -0.2496    2.7078 N.pl3     1 RES1    1.0000
      5 N2         3.4688   -0.4062    1.7826 N.pl3     1 RES1    0.0000
      6 C1         4.2801   -1.6584    1.6967 C.3       1 RES1    0.0000
      7 C2         3.7257   -2.8289    2.5036 C.3       1 RES1    0.0000
      8 C3         4.9785   -3.7046    2.5883 C.3       1 RES1    0.0000
      9 C4         5.9810   -2.7061    3.1523 C.3       1 RES1    0.0000
     10 C5         5.8087   -1.5500    2.1489 C.3       1 RES1    0.0000
     11 C6         6.5902   -1.9265    0.8761 C.3       1 RES1    0.0000
     12 C7         5.6211   -2.9332    0.2533 C.3       1 RES1    0.0000
     13 C8         4.3567   -2.0728    0.2139 C.3       1 RES1    0.0000
     14 C9         5.4116   -4.1497    1.1778 C.3       1 RES1    0.0000
     15 H1         2.9783   -3.2596    2.0501 H         1 RES1    0.0000
     16 H2         3.4603   -2.5588    3.4082 H         1 RES1    0.0000
     17 H3         4.8042   -4.4935    3.1523 H         1 RES1    0.0000
     18 H4         6.9478   -3.0591    3.1439 H         1 RES1    0.0000
     19 H5         5.7142   -2.4473    4.0045 H         1 RES1    0.0000
     20 H6         6.7377   -1.1264    0.2294 H         1 RES1    0.0000
     21 H7         7.5154   -2.2969    1.1203 H         1 RES1    0.0000
     22 H8         5.8871   -3.2391   -0.6597 H         1 RES1    0.0000
     23 H9         4.5434   -1.3208   -0.3754 H         1 RES1    0.0000
     24 H10        3.5626   -2.5915   -0.0052 H         1 RES1    0.0000
     25 H11        6.2662   -4.6551    1.2082 H         1 RES1    0.0000
     26 H12        4.6822   -4.7216    0.7928 H         1 RES1    0.0000
     27 N1B        5.6695    0.2496    3.7532 N.pl3     1 RES1    1.0000
     28 O1B        4.6117   -0.3039    4.2081 O.2       1 RES1   -1.0000
     29 C5B        6.1365    1.5500    4.3121 C.3       1 RES1    0.0000
     30 C1B        7.6651    1.6584    4.7644 C.3       1 RES1    0.0000
     31 C4B        5.9641    2.7061    3.3087 C.3       1 RES1    0.0000
     32 C6B        5.3550    1.9265    5.5849 C.3       1 RES1    0.0000
     33 N2B        8.4764    0.4062    4.6784 N.pl3     1 RES1    0.0000
     34 C2B        8.2195    2.8289    3.9574 C.3       1 RES1    0.0000
     35 C8B        7.5885    2.0728    6.2472 C.3       1 RES1    0.0000
     36 C3B        6.9667    3.7046    3.8727 C.3       1 RES1    0.0000
     37 H4B        4.9974    3.0591    3.3171 H         1 RES1    0.0000
     38 H5B        6.2310    2.4473    2.4565 H         1 RES1    0.0000
     39 C7B        6.3240    2.9332    6.2078 C.3       1 RES1    0.0000
     40 H6B        5.2075    1.1264    6.2317 H         1 RES1    0.0000
     41 H7B        4.4298    2.2969    5.3407 H         1 RES1    0.0000
     42 O2B        7.9408   -0.6456    5.0144 O.2       1 RES1    0.0000
     43 O3B        9.6529    0.5044    4.3857 O.2       1 RES1    0.0000
     44 H1B        8.9668    3.2596    4.4109 H         1 RES1    0.0000
     45 H2B        8.4849    2.5588    3.0528 H         1 RES1    0.0000
     46 H9B        7.4017    1.3208    6.8364 H         1 RES1    0.0000
     47 H10B       8.3826    2.5915    6.4662 H         1 RES1    0.0000
     48 C9B        6.5336    4.1497    5.2832 C.3       1 RES1    0.0000
     49 H3B        7.1410    4.4935    3.3087 H         1 RES1    0.0000
     50 H8B        6.0581    3.2391    7.1207 H         1 RES1    0.0000
     51 H11B       5.6790    4.6551    5.2528 H         1 RES1    0.0000
     52 H12B       7.2630    4.7216    5.6683 H         1 RES1    0.0000
@<TRIPOS>BOND
     1    1    4 1
     2    2    5 2
     3    3    5 2
     4    4   10 1
     5    5    6 1
     6    6    7 1
     7    7    8 1
     8    8    9 1
     9    9   10 1
    10   10    6 1
    11   11   10 1
    12   12   11 1
    13   13    6 1
    14   14    8 1
    15   15    7 1
    16   16    7 1
    17   17    8 1
    18   18    9 1
    19   19    9 1
    20   20   11 1
    21   21   11 1
    22   22   12 1
    23   23   13 1
    24   24   13 1
    25   25   14 1
    26   26   14 1
    27   27    4 2
    28   28   27 1
    29   29   27 1
    30   30   29 1
    31   31   29 1
    32   32   29 1
    33   33   30 1
    34   34   30 1
    35   35   30 1
    36   36   31 1
    37   37   31 1
    38   38   31 1
    39   39   32 1
    40   40   32 1
    41   41   32 1
    42   42   33 2
    43   43   33 2
    44   44   34 1
    45   45   34 1
    46   46   35 1
    47   47   35 1
    48   48   36 1
    49   49   36 1
    50   50   39 1
    51   51   48 1
    52   52   48 1
    53   12   13 1
    54   12   14 1
    55   34   36 1
    56   35   39 1
    57   39   48 1
@<TRIPOS>SUBSTRUCTURE
     1 RES1 1

@<TRIPOS>CRYSIN
  13.4190   10.2310    6.6270  90.0000 102.8500  90.0000  14 2

