# MOL2 file generated by ConQuest
# Please check atom types

@<TRIPOS>MOLECULE
YUFJEQ
    63    67     1
SMALL
NO_CHARGES
****
Generated from CSD

@<TRIPOS>ATOM
      1 O1        10.8624    7.9119    0.1977 O.2       1 RES1    0.0000
      2 N1        -1.8995    5.9364    5.9078 N.ar      1 RES1    0.0000
      3 N2        -2.0327    9.5395    5.9074 N.ar      1 RES1    0.0000
      4 N3        10.2686    7.8167    1.3176 N.3       1 RES1    0.0000
      5 N4        -0.6240    2.5742    5.6374 N.ar      1 RES1    0.0000
      6 C1        -1.4513    7.2022    5.8191 C.ar      1 RES1    0.0000
      7 C2        -0.1118    7.5067    5.5883 C.ar      1 RES1    0.0000
      8 H1         0.1700    8.4117    5.5206 H         1 RES1    0.0000
      9 C3         0.8062    6.4770    5.4590 C.ar      1 RES1    0.0000
     10 C4         0.3498    5.1747    5.5754 C.ar      1 RES1    0.0000
     11 H2         0.9575    4.4482    5.5145 H         1 RES1    0.0000
     12 C5        -1.0097    4.9381    5.7825 C.ar      1 RES1    0.0000
     13 C6        -2.4746    8.2747    5.9686 C.ar      1 RES1    0.0000
     14 C7        -3.8236    7.9614    6.1540 C.ar      1 RES1    0.0000
     15 H3        -4.1096    7.0562    6.1784 H         1 RES1    0.0000
     16 C8        -4.7356    8.9926    6.3002 C.ar      1 RES1    0.0000
     17 H4        -5.6587    8.8056    6.4247 H         1 RES1    0.0000
     18 C9        -4.2855   10.3002    6.2623 C.ar      1 RES1    0.0000
     19 H5        -4.8860   11.0277    6.3787 H         1 RES1    0.0000
     20 C10       -2.9301   10.5206    6.0505 C.ar      1 RES1    0.0000
     21 H6        -2.6233   11.4196    6.0038 H         1 RES1    0.0000
     22 C11        2.2399    6.7150    5.1336 C.ar      1 RES1    0.0000
     23 C12        2.5798    7.5135    4.0420 C.ar      1 RES1    0.0000
     24 H7         1.8964    7.9531    3.5494 H         1 RES1    0.0000
     25 C13        3.8968    7.6727    3.6718 C.ar      1 RES1    0.0000
     26 H8         4.1116    8.2197    2.9254 H         1 RES1    0.0000
     27 C14        4.9250    7.0354    4.3824 C.ar      1 RES1    0.0000
     28 C15        4.5863    6.2364    5.4733 C.ar      1 RES1    0.0000
     29 H9         5.2692    5.7977    5.9673 H         1 RES1    0.0000
     30 C16        3.2619    6.0797    5.8414 C.ar      1 RES1    0.0000
     31 H10        3.0450    5.5310    6.5865 H         1 RES1    0.0000
     32 C17        6.2792    7.1845    3.9419 C.1       1 RES1    0.0000
     33 C18        7.3951    7.3323    3.5250 C.1       1 RES1    0.0000
     34 C19        8.6805    7.5271    2.9315 C.2       1 RES1    0.0000
     35 C20        8.8116    7.5818    1.4197 C.3       1 RES1    0.0000
     36 C21       10.9990    7.8689    2.6121 C.3       1 RES1    0.0000
     37 C22        9.8481    7.6786    3.5568 C.2       1 RES1    0.0000
     38 H11        9.9421    7.6683    4.5022 H         1 RES1    0.0000
     39 C23        8.4600    6.2526    0.7654 C.3       1 RES1    0.0000
     40 H12        8.6300    6.3067   -0.1983 H         1 RES1    0.0000
     41 H13        7.5126    6.0542    0.9183 H         1 RES1    0.0000
     42 H14        9.0108    5.5411    1.1545 H         1 RES1    0.0000
     43 C24        8.0478    8.7361    0.7884 C.3       1 RES1    0.0000
     44 H15        8.3173    9.5772    1.2120 H         1 RES1    0.0000
     45 H16        7.0857    8.5995    0.9163 H         1 RES1    0.0000
     46 H17        8.2480    8.7753   -0.1705 H         1 RES1    0.0000
     47 C25       11.6692    9.2233    2.7698 C.3       1 RES1    0.0000
     48 H18       12.3156    9.3550    2.0457 H         1 RES1    0.0000
     49 H19       12.1319    9.2601    3.6326 H         1 RES1    0.0000
     50 H20       10.9904    9.9287    2.7332 H         1 RES1    0.0000
     51 C26       12.0069    6.7225    2.6852 C.3       1 RES1    0.0000
     52 H21       11.5350    5.8663    2.6047 H         1 RES1    0.0000
     53 H22       12.4778    6.7552    3.5433 H         1 RES1    0.0000
     54 H23       12.6542    6.8097    1.9537 H         1 RES1    0.0000
     55 C27       -1.5263    3.5546    5.8461 C.ar      1 RES1    0.0000
     56 C28       -2.8658    3.2833    6.1053 C.ar      1 RES1    0.0000
     57 H24       -3.4818    3.9917    6.2515 H         1 RES1    0.0000
     58 C29       -3.2835    1.9714    6.1466 C.ar      1 RES1    0.0000
     59 H25       -4.1928    1.7635    6.3259 H         1 RES1    0.0000
     60 C30       -2.3715    0.9630    5.9253 C.ar      1 RES1    0.0000
     61 H26       -2.6392    0.0505    5.9476 H         1 RES1    0.0000
     62 C31       -1.0597    1.3108    5.6715 C.ar      1 RES1    0.0000
     63 H27       -0.4330    0.6141    5.5118 H         1 RES1    0.0000
@<TRIPOS>BOND
     1    1    4 1
     2    2    6 ar
     3    3   13 ar
     4    4   35 1
     5    5   55 ar
     6    6    7 ar
     7    7    8 1
     8    9    7 ar
     9   10    9 ar
    10   11   10 1
    11   12    2 ar
    12   13    6 1
    13   14   13 ar
    14   15   14 1
    15   16   14 ar
    16   17   16 1
    17   18   16 ar
    18   19   18 1
    19   20    3 ar
    20   21   20 1
    21   22    9 1
    22   23   22 ar
    23   24   23 1
    24   25   23 ar
    25   26   25 1
    26   27   25 ar
    27   28   27 ar
    28   29   28 1
    29   30   22 ar
    30   31   30 1
    31   32   27 1
    32   33   32 3
    33   34   33 1
    34   35   34 1
    35   36    4 1
    36   37   34 2
    37   38   37 1
    38   39   35 1
    39   40   39 1
    40   41   39 1
    41   42   39 1
    42   43   35 1
    43   44   43 1
    44   45   43 1
    45   46   43 1
    46   47   36 1
    47   48   47 1
    48   49   47 1
    49   50   47 1
    50   51   36 1
    51   52   51 1
    52   53   51 1
    53   54   51 1
    54   55   12 1
    55   56   55 ar
    56   57   56 1
    57   58   56 ar
    58   59   58 1
    59   60   58 ar
    60   61   60 1
    61   62    5 ar
    62   63   62 1
    63   10   12 ar
    64   18   20 ar
    65   28   30 ar
    66   36   37 1
    67   60   62 ar
@<TRIPOS>SUBSTRUCTURE
     1 RES1 1

@<TRIPOS>CRYSIN
  18.5666   20.2009    6.7749  90.0000  92.7430  90.0000  14 1

