# MOL2 file generated by ConQuest
# Please check atom types

@<TRIPOS>MOLECULE
YUFLAM
    15    16     1
SMALL
NO_CHARGES
****
Generated from CSD

@<TRIPOS>ATOM
      1 O1         3.4081   -0.8471   10.6238 O.3       1 RES1    0.0000
      2 N1         0.9581    1.6755    7.6529 N.2       1 RES1    0.0000
      3 N2         0.6438    2.3354    9.7375 N.3       1 RES1    0.0000
      4 N3         2.4519    0.1586   10.5191 N.2       1 RES1    0.0000
      5 C1         1.3218    1.4992    8.9118 C.2       1 RES1    0.0000
      6 C2        -0.1890    3.0929    8.9427 C.2       1 RES1    0.0000
      7 C3         0.0085    2.6674    7.6650 C.2       1 RES1    0.0000
      8 C4         2.2923    0.4915    9.3054 C.2       1 RES1    0.0000
      9 C5         0.7150    2.4576   11.1905 C.3       1 RES1    0.0000
     10 C6        -0.2270    1.4982   11.9092 C.ar      1 RES1    0.0000
     11 C7        -0.9031    0.4807   11.2787 C.ar      1 RES1    0.0000
     12 C8        -1.7226   -0.3743   11.9864 C.ar      1 RES1    0.0000
     13 C9        -1.8888   -0.1980   13.3479 C.ar      1 RES1    0.0000
     14 C10       -1.2231    0.8087   13.9895 C.ar      1 RES1    0.0000
     15 C11       -0.3998    1.6587   13.2817 C.ar      1 RES1    0.0000
@<TRIPOS>BOND
     1    1    4 1
     2    2    5 2
     3    3    5 1
     4    4    8 2
     5    5    8 1
     6    6    3 1
     7    7    2 1
     8    9    3 1
     9   10    9 1
    10   11   10 ar
    11   12   11 ar
    12   13   12 ar
    13   14   13 ar
    14   15   10 ar
    15    6    7 2
    16   14   15 ar
@<TRIPOS>SUBSTRUCTURE
     1 RES1 1

@<TRIPOS>CRYSIN
   9.4960    9.8500   11.0240  90.0000  90.0000  90.0000  19 1

