# MOL2 file generated by ConQuest
# Please check atom types

@<TRIPOS>MOLECULE
YUFROI
    29    28     1
SMALL
NO_CHARGES
****
Generated from CSD

@<TRIPOS>ATOM
      1 H1        10.5360    0.2913   16.1733 H         1 RES1    0.0000
      2 H2        12.8510    2.7244   13.7646 H         1 RES1    0.0000
      3 H3        11.9811    0.0707   16.6836 H         1 RES1    0.0000
      4 H4         9.5973    2.9480   18.3710 H         1 RES1    0.0000
      5 H5         6.8762    0.5323   16.4909 H         1 RES1    0.0000
      6 H6         9.9821    3.0922   16.8607 H         1 RES1    0.0000
      7 O1         8.6847    1.6432   17.1893 O.3       1 RES1    0.0000
      8 O2         7.4678    3.4794   16.6537 O.2       1 RES1    0.0000
      9 O3        12.2684   -0.2136   14.2825 O.2       1 RES1    0.0000
     10 O4        11.8289    1.6210   15.5147 O.3       1 RES1    0.0000
     11 C1        10.9580    1.5295   17.7119 C.3       1 RES1    0.0000
     12 O5        12.0705    3.5219   18.2658 O.2       1 RES1    0.0000
     13 O6         4.6661    0.6044   15.9595 O.2       1 RES1    0.0000
     14 N1        12.1800    2.3118   18.1820 N.pl3     1 RES1    0.0000
     15 O7        10.2147   -0.5279   18.5593 O.2       1 RES1    0.0000
     16 N2         6.7126    1.3105   16.3326 N.am      1 RES1    0.0000
     17 N3        10.6520    0.5653   18.8647 N.pl3     1 RES1    0.0000
     18 O8        13.1798    1.6601   18.4278 O.2       1 RES1    0.0000
     19 C2        11.3143    0.6943   16.4935 C.3       1 RES1    0.0000
     20 N4        13.5924    1.5842   12.4618 N.pl3     1 RES1    0.0000
     21 N5         5.4235    1.5608   15.9058 N.pl3     1 RES1    0.0000
     22 C3         7.6036    2.2887   16.7170 C.2       1 RES1    0.0000
     23 O9        10.8492    0.9777   19.9985 O.2       1 RES1    0.0000
     24 N6        12.8080    1.9189   13.5552 N.am      1 RES1    0.0000
     25 C4        12.3102    0.9744   14.4289 C.2       1 RES1    0.0000
     26 C5         9.7945    2.4898   17.5409 C.3       1 RES1    0.0000
     27 O10       13.7203    0.4172   12.1691 O.2       1 RES1    0.0000
     28 O11       14.0788    2.5443   11.8767 O.2       1 RES1    0.0000
     29 O12        5.1580    2.6685   15.4889 O.2       1 RES1    0.0000
@<TRIPOS>BOND
     1    1   19 1
     2    2   24 1
     3    3   19 1
     4    4   26 1
     5    5   16 1
     6    6   26 1
     7    7   22 1
     8    8   22 2
     9    9   25 2
    10   10   19 1
    11   11   14 1
    12   12   14 2
    13   13   21 2
    14   14   18 2
    15   15   17 2
    16   16   21 1
    17   17   11 1
    18   19   11 1
    19   20   24 1
    20   21   29 2
    21   22   16 1
    22   23   17 2
    23   24   25 1
    24   25   10 1
    25   26    7 1
    26   27   20 2
    27   28   20 2
    28   11   26 1
@<TRIPOS>SUBSTRUCTURE
     1 RES1 1

@<TRIPOS>CRYSIN
  10.1269    9.6783   26.0397  90.0000  90.0000  90.0000  61 1

