# MOL2 file generated by ConQuest
# Please check atom types

@<TRIPOS>MOLECULE
YUGFIR
    25    24     1
SMALL
NO_CHARGES
****
Generated from CSD

@<TRIPOS>ATOM
      1 C1         4.3606    4.8989    1.7708 C.3       1 RES1    0.0000
      2 C2         3.5788    5.2904    3.0029 C.3       1 RES1    0.0000
      3 C3         2.2120    5.8859    2.6982 C.3       1 RES1    0.0000
      4 C4         1.4580    6.2272    3.9674 C.3       1 RES1    0.0000
      5 C5         0.3836    5.1111    5.7383 C.2       1 RES1    0.0000
      6 N1         4.2895    5.9996    0.7052 N.pl3     1 RES1    0.0000
      7 N2         5.8230    4.6571    2.0733 N.pl3     1 RES1    0.0000
      8 N3         3.8695    3.6260    1.1117 N.pl3     1 RES1    0.0000
      9 N4         0.1167    3.9314    6.2859 N.am      1 RES1    0.0000
     10 O1         3.8521    5.6737   -0.3745 O.2       1 RES1    0.0000
     11 O2         4.6319    7.0850    1.0738 O.2       1 RES1    0.0000
     12 O3         6.0252    3.8966    3.0178 O.2       1 RES1    0.0000
     13 O4         6.6568    5.2658    1.4483 O.2       1 RES1    0.0000
     14 O5         4.6565    3.0849    0.4065 O.2       1 RES1    0.0000
     15 O6         2.7900    3.2284    1.3599 O.2       1 RES1    0.0000
     16 O7         1.1069    4.9831    4.6065 O.3       1 RES1    0.0000
     17 O8         0.0108    6.1874    6.1618 O.2       1 RES1    0.0000
     18 H1         3.5071    4.5505    3.5520 H         1 RES1    0.0000
     19 H2         4.1129    5.8726    3.4034 H         1 RES1    0.0000
     20 H3         1.6906    5.2679    2.1327 H         1 RES1    0.0000
     21 H4         2.3364    6.7335    2.2516 H         1 RES1    0.0000
     22 H5         2.0466    6.7130    4.5850 H         1 RES1    0.0000
     23 H6         0.6563    6.7437    3.7304 H         1 RES1    0.0000
     24 H7        -0.3928    3.9253    6.9332 H         1 RES1    0.0000
     25 H8         0.3681    3.2386    5.9151 H         1 RES1    0.0000
@<TRIPOS>BOND
     1    1    2 1
     2    2    3 1
     3    3    4 1
     4    4   16 1
     5    5    9 1
     6    6    1 1
     7    7    1 1
     8    8    1 1
     9    9   24 1
    10   10    6 2
    11   11    6 2
    12   12    7 2
    13   13    7 2
    14   14    8 2
    15   15    8 2
    16   16    5 1
    17   17    5 2
    18   18    2 1
    19   19    2 1
    20   20    3 1
    21   21    3 1
    22   22    4 1
    23   23    4 1
    24   25    9 1
@<TRIPOS>SUBSTRUCTURE
     1 RES1 1

@<TRIPOS>CRYSIN
  13.4255   10.2488    7.4690  90.0000  95.7780  90.0000  14 1

