# MOL2 file generated by ConQuest
# Please check atom types

@<TRIPOS>MOLECULE
YUGFEN
    20    19     1
SMALL
NO_CHARGES
****
Generated from CSD

@<TRIPOS>ATOM
      1 C1         0.2256   -1.5082    6.2836 C.3       1 RES1    0.0000
      2 H1         1.0581   -2.0067    6.0932 H         1 RES1    0.0000
      3 H2        -0.2990   -1.4123    5.4510 H         1 RES1    0.0000
      4 H3        -0.3091   -2.0022    6.9547 H         1 RES1    0.0000
      5 C2         0.5689   -0.1427    6.8222 C.3       1 RES1    0.0000
      6 C3         1.4479   -0.1510    8.0552 C.3       1 RES1    0.0000
      7 C4         3.3178   -1.5492    8.4108 C.2       1 RES1    0.0000
      8 N1        -0.7230    0.5906    7.1339 N.pl3     1 RES1    0.0000
      9 N2         1.2705    0.7084    5.7654 N.pl3     1 RES1    0.0000
     10 N3         4.3639   -2.0982    7.8078 N.am      1 RES1    0.0000
     11 O1        -1.1625    0.4665    8.2563 O.2       1 RES1    0.0000
     12 O2        -1.2412    1.2126    6.2360 O.2       1 RES1    0.0000
     13 O3         1.6191    1.8231    6.1399 O.2       1 RES1    0.0000
     14 O4         1.4934    0.2342    4.6809 O.2       1 RES1    0.0000
     15 O5         2.7013   -0.6578    7.5972 O.3       1 RES1    0.0000
     16 O6         2.9352   -1.7642    9.5501 O.2       1 RES1    0.0000
     17 H4         1.6055    0.7231    8.3819 H         1 RES1    0.0000
     18 H5         1.0856   -0.7231    8.6899 H         1 RES1    0.0000
     19 H6         4.4498   -1.9837    7.0285 H         1 RES1    0.0000
     20 H7         4.7506   -2.7644    8.2699 H         1 RES1    0.0000
@<TRIPOS>BOND
     1    1    2 1
     2    3    1 1
     3    4    1 1
     4    5    1 1
     5    6    5 1
     6    7   10 1
     7    8    5 1
     8    9    5 1
     9   10   19 1
    10   11    8 2
    11   12    8 2
    12   13    9 2
    13   14    9 2
    14   15    6 1
    15   16    7 2
    16   17    6 1
    17   18    6 1
    18   20   10 1
    19    7   15 1
@<TRIPOS>SUBSTRUCTURE
     1 RES1 1

@<TRIPOS>CRYSIN
  13.4710    6.3990    9.7370  90.0000 106.5430  90.0000  14 1

