# MOL2 file generated by ConQuest
# Please check atom types

@<TRIPOS>MOLECULE
YUGRUO
    55    56     1
SMALL
NO_CHARGES
****
Generated from CSD

@<TRIPOS>ATOM
      1 C1        26.1001    8.4484    4.7728 C.2       1 RES1    0.0000
      2 N1        27.1788    9.0159    5.3185 N.am      1 RES1    0.0000
      3 C2        27.2922   10.4671    5.4384 C.3       1 RES1    0.0000
      4 H1        26.7186   10.7938    6.1619 H         1 RES1    0.0000
      5 C3        26.9445   11.1700    4.1269 C.2       1 RES1    0.0000
      6 C4        25.7609   13.1288    3.1479 C.3       1 RES1    0.0000
      7 C5        24.9454   12.4339    2.0374 C.2       1 RES1    0.0000
      8 C6        23.3704   10.5696    1.5959 C.ar      1 RES1    0.0000
      9 C7        22.9695    9.3285    2.0773 C.ar      1 RES1    0.0000
     10 H2        23.3603    8.9898    2.8495 H         1 RES1    0.0000
     11 C8        22.0028    8.5935    1.4291 C.ar      1 RES1    0.0000
     12 H3        21.7578    7.7608    1.7645 H         1 RES1    0.0000
     13 C9        21.3937    9.0723    0.2925 C.ar      1 RES1    0.0000
     14 H4        20.7339    8.5845   -0.1454 H         1 RES1    0.0000
     15 C10       21.8030   10.3057   -0.1709 C.ar      1 RES1    0.0000
     16 C11       22.7780   11.0754    0.4414 C.ar      1 RES1    0.0000
     17 H5        23.0277   11.9005    0.0938 H         1 RES1    0.0000
     18 C12       28.3670    8.3036    5.8213 C.3       1 RES1    0.0000
     19 H6        28.5987    7.4095    5.7112 H         1 RES1    0.0000
     20 C13       29.1162    9.3929    6.5634 C.3       1 RES1    0.0000
     21 H7        29.6603    9.3043    7.3118 H         1 RES1    0.0000
     22 C14       28.7737   10.6595    5.8033 C.3       1 RES1    0.0000
     23 H8        29.3277   11.3807    5.6052 H         1 RES1    0.0000
     24 C15       26.9919   13.7754    2.5240 C.3       1 RES1    0.0000
     25 H9        27.5458   13.0966    2.1312 H         1 RES1    0.0000
     26 H10       27.4880   14.2400    3.2023 H         1 RES1    0.0000
     27 H11       26.7186   14.3966    1.8456 H         1 RES1    0.0000
     28 C16       24.8352   14.1942    3.7306 C.3       1 RES1    0.0000
     29 H12       25.3099   14.7045    4.3899 H         1 RES1    0.0000
     30 H13       24.0777   13.7703    4.1402 H         1 RES1    0.0000
     31 H14       24.5347   14.7769    3.0291 H         1 RES1    0.0000
     32 C17       25.2541    6.2562    4.0405 C.3       1 RES1    0.0000
     33 C18       25.3695    6.5700    2.5506 C.3       1 RES1    0.0000
     34 H15       26.2673    6.3950    2.2552 H         1 RES1    0.0000
     35 H16       25.1566    7.4950    2.4006 H         1 RES1    0.0000
     36 H17       24.7574    6.0173    2.0588 H         1 RES1    0.0000
     37 C19       23.8445    6.4318    4.5868 C.3       1 RES1    0.0000
     38 H18       23.5281    7.3134    4.3800 H         1 RES1    0.0000
     39 H19       23.8520    6.3095    5.5386 H         1 RES1    0.0000
     40 H20       23.2620    5.7818    4.1854 H         1 RES1    0.0000
     41 C20       25.7470    4.8556    4.3464 C.3       1 RES1    0.0000
     42 H21       25.7987    4.7357    5.2976 H         1 RES1    0.0000
     43 H22       26.6173    4.7304    3.9600 H         1 RES1    0.0000
     44 H23       25.1363    4.2133    3.9757 H         1 RES1    0.0000
     45 O1        26.2248    7.1028    4.7687 O.3       1 RES1    0.0000
     46 O2        25.1398    9.0794    4.3673 O.2       1 RES1    0.0000
     47 O3        27.4255   10.8205    3.0552 O.2       1 RES1    0.0000
     48 O4        24.8092   12.9964    0.9558 O.2       1 RES1    0.0000
     49 O5        20.1591   10.2753   -1.8010 O.2       1 RES1    0.0000
     50 O6        21.6019   11.8816   -1.8566 O.2       1 RES1    0.0000
     51 N2        26.1126   12.2236    4.2416 N.am      1 RES1    0.0000
     52 H24       25.7640   12.3742    5.0132 H         1 RES1    0.0000
     53 N3        24.3374   11.2652    2.3571 N.am      1 RES1    0.0000
     54 H25       24.5636   10.9070    3.1056 H         1 RES1    0.0000
     55 N4        21.1406   10.8573   -1.3590 N.pl3     1 RES1    0.0000
@<TRIPOS>BOND
     1    1    2 1
     2    2    3 1
     3    3    4 1
     4    5    3 1
     5    6    7 1
     6    7   48 2
     7    8    9 ar
     8    9   10 1
     9   11    9 ar
    10   12   11 1
    11   13   11 ar
    12   14   13 1
    13   15   13 ar
    14   16    8 ar
    15   17   16 1
    16   18    2 1
    17   19   18 1
    18   20   18 1
    19   21   20 1
    20   22    3 1
    21   23   22 1
    22   24    6 1
    23   25   24 1
    24   26   24 1
    25   27   24 1
    26   28    6 1
    27   29   28 1
    28   30   28 1
    29   31   28 1
    30   32   33 1
    31   33   34 1
    32   35   33 1
    33   36   33 1
    34   37   32 1
    35   38   37 1
    36   39   37 1
    37   40   37 1
    38   41   32 1
    39   42   41 1
    40   43   41 1
    41   44   41 1
    42   45    1 1
    43   46    1 2
    44   47    5 2
    45   49   55 2
    46   50   55 2
    47   51    5 1
    48   52   51 1
    49   53    7 1
    50   54   53 1
    51   55   15 1
    52    6   51 1
    53    8   53 1
    54   15   16 ar
    55   20   22 1
    56   32   45 1
@<TRIPOS>SUBSTRUCTURE
     1 RES1 1

@<TRIPOS>CRYSIN
  28.9256   13.1584    5.7929  90.0000  90.0000  90.0000  18 1

