# MOL2 file generated by ConQuest
# Please check atom types

@<TRIPOS>MOLECULE
YUHTIE
    16    16     1
SMALL
NO_CHARGES
****
Generated from CSD

@<TRIPOS>ATOM
      1 N1         4.8220    2.3525    2.8257 N.pl3     1 RES1    0.0000
      2 O1         5.3470    1.6818    3.6578 O.2       1 RES1    0.0000
      3 N2         4.0663    3.3403    3.0593 N.2       1 RES1    0.0000
      4 C1         3.6692    3.8126    1.8044 C.2       1 RES1    0.0000
      5 O2         2.9176    4.7341    1.6950 O.2       1 RES1    0.0000
      6 N3         4.2365    3.0946    0.8583 N.am      1 RES1    0.0000
      7 C2         5.0438    2.0694    1.3758 C.3       1 RES1    0.0000
      8 C3         4.5427    0.6998    1.0532 C.3       1 RES1    0.0000
      9 C4         6.4731    2.2795    1.1170 C.3       1 RES1    0.0000
     10 H1         3.5558    3.2349   -0.0422 H         1 RES1    0.0000
     11 H2         3.5464    0.5064    1.2926 H         1 RES1    0.0000
     12 H3         4.2829    0.6209   -0.0433 H         1 RES1    0.0000
     13 H4         5.1963    0.1137    1.4613 H         1 RES1    0.0000
     14 H5         6.4076    2.1865    0.1402 H         1 RES1    0.0000
     15 H6         6.9879    1.7150    1.5274 H         1 RES1    0.0000
     16 H7         7.1089    3.1660    1.6950 H         1 RES1    0.0000
@<TRIPOS>BOND
     1    1    2 1
     2    3    1 2
     3    4    3 1
     4    5    4 2
     5    6    4 1
     6    7    1 1
     7    8    7 1
     8    9    7 1
     9   10    6 1
    10   11    8 1
    11   12    8 1
    12   13    8 1
    13   14    9 1
    14   15    9 1
    15   16    9 1
    16    6    7 1
@<TRIPOS>SUBSTRUCTURE
     1 RES1 1

@<TRIPOS>CRYSIN
   6.0030    8.3010   11.4320  90.0000  94.3900  90.0000  14 1

