# MOL2 file generated by ConQuest
# Please check atom types

@<TRIPOS>MOLECULE
YUJGIT02
    29    30     1
SMALL
NO_CHARGES
****
Generated from CSD

@<TRIPOS>ATOM
      1 C1         3.2057    7.9511   14.0031 C.ar      1 RES1    0.0000
      2 C2         2.6893    7.6902   15.2725 C.ar      1 RES1    0.0000
      3 H1         3.1307    7.0997   15.8392 H         1 RES1    0.0000
      4 C3         1.5267    8.3040   15.6887 C.ar      1 RES1    0.0000
      5 H2         1.1905    8.1319   16.5381 H         1 RES1    0.0000
      6 C4         0.8561    9.1778   14.8433 C.ar      1 RES1    0.0000
      7 H3         0.0695    9.5890   15.1200 H         1 RES1    0.0000
      8 C5         1.3683    9.4293   13.5872 C.ar      1 RES1    0.0000
      9 H4         0.9142   10.0071   13.0166 H         1 RES1    0.0000
     10 C6         2.5455    8.8373   13.1592 C.ar      1 RES1    0.0000
     11 H5         2.8901    9.0308   12.3177 H         1 RES1    0.0000
     12 C7         6.0317    6.8705   12.2155 C.2       1 RES1    0.0000
     13 H6         6.4864    6.5267   12.9502 H         1 RES1    0.0000
     14 C8         6.6496    6.8087   10.9064 C.ar      1 RES1    0.0000
     15 C9         7.9187    6.2326   10.7895 C.ar      1 RES1    0.0000
     16 H7         8.3534    5.9252   11.5525 H         1 RES1    0.0000
     17 C10        8.5336    6.1121    9.5670 C.ar      1 RES1    0.0000
     18 H8         9.3777    5.7270    9.4933 H         1 RES1    0.0000
     19 C11        7.8649    6.5790    8.4444 C.ar      1 RES1    0.0000
     20 C12        6.6091    7.1558    8.5197 C.ar      1 RES1    0.0000
     21 H9         6.1786    7.4597    7.7538 H         1 RES1    0.0000
     22 C13        6.0129    7.2696    9.7498 C.ar      1 RES1    0.0000
     23 H10        5.1713    7.6591    9.8164 H         1 RES1    0.0000
     24 N1         4.3750    7.3085   13.6323 N.pl3     1 RES1    0.0000
     25 N2         4.8672    7.3915   12.3813 N.2       1 RES1    0.0000
     26 N3         8.5046    6.4480    7.1419 N.pl3     1 RES1    0.0000
     27 O1         7.8655    6.7298    6.1344 O.2       1 RES1    0.0000
     28 O2         9.6745    6.0477    7.1055 O.2       1 RES1    0.0000
     29 H11        4.8067    6.8127   14.2698 H         1 RES1    0.0000
@<TRIPOS>BOND
     1    1    2 ar
     2    2    3 1
     3    4    2 ar
     4    5    4 1
     5    6    4 ar
     6    7    6 1
     7    8    6 ar
     8    9    8 1
     9   10    1 ar
    10   11   10 1
    11   12   13 1
    12   14   12 1
    13   15   14 ar
    14   16   15 1
    15   17   15 ar
    16   18   17 1
    17   19   17 ar
    18   20   19 ar
    19   21   20 1
    20   22   14 ar
    21   23   22 1
    22   24    1 1
    23   25   12 2
    24   26   19 1
    25   27   26 2
    26   28   26 2
    27   29   24 1
    28    8   10 ar
    29   20   22 ar
    30   24   25 1
@<TRIPOS>SUBSTRUCTURE
     1 RES1 1

@<TRIPOS>CRYSIN
   6.0462   11.3924   17.0040  90.0000  90.0000  90.0000  19 1

