# MOL2 file generated by ConQuest
# Please check atom types

@<TRIPOS>MOLECULE
YUJGIT
    29    30     1
SMALL
NO_CHARGES
****
Generated from CSD

@<TRIPOS>ATOM
      1 C1         3.4676   -2.6675   -3.9182 C.ar      1 RES1    0.0000
      2 C2         4.6333   -2.0586   -3.4765 C.ar      1 RES1    0.0000
      3 C3         5.1174   -2.2732   -2.2084 C.ar      1 RES1    0.0000
      4 C4         4.4376   -3.1338   -1.3751 C.ar      1 RES1    0.0000
      5 C5         3.2919   -3.7589   -1.7960 C.ar      1 RES1    0.0000
      6 C6         2.7987   -3.5351   -3.0745 C.ar      1 RES1    0.0000
      7 N1         1.6438   -4.1950   -3.4523 N.3       1 RES1    0.0000
      8 N2         1.1585   -4.1277   -4.7170 N.2       1 RES1    0.0000
      9 C7         0.0030   -4.6705   -4.9016 C.2       1 RES1    0.0000
     10 C8        -0.6059   -4.7192   -6.2128 C.ar      1 RES1    0.0000
     11 C9         0.0424   -4.2275   -7.3653 C.ar      1 RES1    0.0000
     12 C10       -0.5489   -4.3342   -8.5972 C.ar      1 RES1    0.0000
     13 C11       -1.7965   -4.9257   -8.6921 C.ar      1 RES1    0.0000
     14 C12       -2.4563   -5.4023   -7.5861 C.ar      1 RES1    0.0000
     15 C13       -1.8528   -5.3038   -6.3577 C.ar      1 RES1    0.0000
     16 N3        -2.4242   -5.0486   -9.9981 N.pl3     1 RES1    0.0000
     17 O1        -1.7771   -4.7447  -11.0022 O.2       1 RES1    0.0000
     18 O2        -3.5748   -5.4464  -10.0602 O.2       1 RES1    0.0000
     19 H1         3.1367   -2.5713   -4.7498 H         1 RES1    0.0000
     20 H2         5.2931   -1.5669   -4.0924 H         1 RES1    0.0000
     21 H3         6.0554   -1.8441   -1.9116 H         1 RES1    0.0000
     22 H4         4.7066   -3.2184   -0.5918 H         1 RES1    0.0000
     23 H5         2.8235   -4.2913   -1.1335 H         1 RES1    0.0000
     24 H6         1.2415   -4.7610   -2.7001 H         1 RES1    0.0000
     25 H7        -0.5029   -5.1159   -4.1321 H         1 RES1    0.0000
     26 H8         1.0494   -3.9213   -7.2135 H         1 RES1    0.0000
     27 H9        -0.1890   -4.0083   -9.3891 H         1 RES1    0.0000
     28 H10       -3.1937   -5.6958   -7.7311 H         1 RES1    0.0000
     29 H11       -2.2873   -5.6065   -5.5762 H         1 RES1    0.0000
@<TRIPOS>BOND
     1    1    2 ar
     2    2    3 ar
     3    3    4 ar
     4    4    5 ar
     5    5    6 ar
     6    6    1 ar
     7    7    6 1
     8    8    7 1
     9    9    8 2
    10   10    9 1
    11   11   10 ar
    12   12   11 ar
    13   13   12 ar
    14   14   13 ar
    15   15   10 ar
    16   16   13 1
    17   17   16 2
    18   18   16 2
    19   19    1 1
    20   20    2 1
    21   21    3 1
    22   22    4 1
    23   23    5 1
    24   24    7 1
    25   25    9 1
    26   26   11 1
    27   27   12 1
    28   28   14 1
    29   29   15 1
    30   14   15 ar
@<TRIPOS>SUBSTRUCTURE
     1 RES1 1

@<TRIPOS>CRYSIN
   6.0590   11.5980   17.2530  90.0000  90.0000  90.0000  19 1

