# MOL2 file generated by ConQuest
# Please check atom types

@<TRIPOS>MOLECULE
YUJLIY01
    31    32     1
SMALL
NO_CHARGES
****
Generated from CSD

@<TRIPOS>ATOM
      1 O1         2.4453   11.2495    0.3722 O.3       1 RES1    0.0000
      2 C1         1.8514   10.0034    0.1133 C.3       1 RES1    0.0000
      3 C2         0.6886    9.7407    1.0353 C.3       1 RES1    0.0000
      4 C3         0.9410   10.6982    2.2071 C.3       1 RES1    0.0000
      5 C4         1.6672   11.8561    1.5315 C.3       1 RES1    0.0000
      6 C5         2.6372   12.6477    2.3740 C.2       1 RES1    0.0000
      7 O2         2.2443   13.0124    3.6717 O.3       1 RES1    0.0000
      8 C6         0.9609   13.3701    3.9823 C.2       1 RES1    0.0000
      9 N1         0.8490   13.5948    5.3050 N.am      1 RES1    0.0000
     10 C7         2.0425   13.6691    6.2002 C.3       1 RES1    0.0000
     11 C8        -0.5013   13.6501    5.9039 C.3       1 RES1    0.0000
     12 C9        -1.2658   14.9100    5.5103 C.3       1 RES1    0.0000
     13 C10       -1.2852   12.3798    5.6647 C.3       1 RES1    0.0000
     14 C11        2.1991   12.3591    6.9633 C.3       1 RES1    0.0000
     15 C12        1.9787   14.8824    7.0846 C.3       1 RES1    0.0000
     16 O3         0.0780   13.4341    3.1657 O.2       1 RES1    0.0000
     17 C13        3.8540   12.9674    2.0313 C.2       1 RES1    0.0000
     18 O4        -0.5017   10.0864    0.3472 O.3       1 RES1    0.0000
     19 C14       -1.6823    9.6768    1.0041 C.3       1 RES1    0.0000
     20 O5         1.8562   10.0656    3.1309 O.3       1 RES1    0.0000
     21 C15        1.2907    9.4227    4.1626 C.2       1 RES1    0.0000
     22 O6         0.1043    9.3294    4.3117 O.2       1 RES1    0.0000
     23 C16        2.2994    8.8333    5.0988 C.ar      1 RES1    0.0000
     24 C17        1.8147    8.0314    6.1252 C.ar      1 RES1    0.0000
     25 C18        2.7038    7.4749    7.0177 C.ar      1 RES1    0.0000
     26 C19        4.0467    7.6944    6.8606 C.ar      1 RES1    0.0000
     27 C20        4.5435    8.4963    5.8521 C.ar      1 RES1    0.0000
     28 C21        3.6600    9.0632    4.9659 C.ar      1 RES1    0.0000
     29 N2         4.9874    7.0687    7.8094 N.pl3     1 RES1    0.0000
     30 O7         4.5279    6.4414    8.7420 O.2       1 RES1    0.0000
     31 O8         6.1858    7.2157    7.6175 O.2       1 RES1    0.0000
@<TRIPOS>BOND
     1    1    2 1
     2    2    3 1
     3    3    4 1
     4    4    5 1
     5    5    1 1
     6    6    5 1
     7    7    6 1
     8    8    7 1
     9    9    8 1
    10   10    9 1
    11   11    9 1
    12   12   11 1
    13   13   11 1
    14   14   10 1
    15   15   10 1
    16   16    8 2
    17   17    6 2
    18   18    3 1
    19   19   18 1
    20   20    4 1
    21   21   20 1
    22   22   21 2
    23   23   21 1
    24   24   23 ar
    25   25   24 ar
    26   26   25 ar
    27   27   26 ar
    28   28   23 ar
    29   29   26 1
    30   30   29 2
    31   31   29 2
    32   27   28 ar
@<TRIPOS>SUBSTRUCTURE
     1 RES1 1

@<TRIPOS>CRYSIN
   7.2800   17.2830    9.2270  90.0000 104.7000  90.0000   4 1

