# MOL2 file generated by ConQuest
# Please check atom types

@<TRIPOS>MOLECULE
YUJXUX
    47    50     1
SMALL
NO_CHARGES
****
Generated from CSD

@<TRIPOS>ATOM
      1 O1         1.8441    5.1910    1.9950 O.3       1 RES1    0.0000
      2 O2         3.0657    2.2013    0.4262 O.3       1 RES1    0.0000
      3 O3         4.6495    4.3579    0.5152 O.3       1 RES1    0.0000
      4 O4         2.8602    6.7257    0.0994 O.3       1 RES1    0.0000
      5 O5         1.8560    8.0998    1.5494 O.2       1 RES1    0.0000
      6 O6         0.9109    7.5885   -0.3161 O.2       1 RES1    0.0000
      7 O7         1.2589    1.5942    2.5124 O.3       1 RES1    0.0000
      8 O8         4.4671    1.9190    4.1282 O.3       1 RES1    0.0000
      9 O9         2.2456    1.4262    5.5423 O.3       1 RES1    0.0000
     10 O10       -0.3450    2.6490    4.2983 O.3       1 RES1    0.0000
     11 O11       -1.4348    3.8344    2.8427 O.2       1 RES1    0.0000
     12 O12       -1.5007    1.6808    2.6375 O.2       1 RES1    0.0000
     13 O13        5.6734   -0.7782    3.5329 O.2       1 RES1    0.0000
     14 O14        3.8627   -1.7921    3.0685 O.2       1 RES1    0.0000
     15 C1         1.6788    4.0844    1.1104 C.3       1 RES1    0.0000
     16 H1         1.7670    4.3683    0.1863 H         1 RES1    0.0000
     17 H2         0.8064    3.6772    1.2295 H         1 RES1    0.0000
     18 C2         2.7883    3.1003    1.4800 C.3       1 RES1    0.0000
     19 C3         3.9543    4.0878    1.7337 C.3       1 RES1    0.0000
     20 H3         4.5579    3.7677    2.4353 H         1 RES1    0.0000
     21 C4         3.2463    5.3931    2.1360 C.3       1 RES1    0.0000
     22 H4         3.4663    5.6306    3.0619 H         1 RES1    0.0000
     23 C5         3.8114    6.4484    1.1588 C.3       1 RES1    0.0000
     24 H5         4.0947    7.2639    1.6223 H         1 RES1    0.0000
     25 C6         4.9739    5.7358    0.5026 C.3       1 RES1    0.0000
     26 H6         5.0938    6.0480   -0.4074 H         1 RES1    0.0000
     27 H7         5.7932    5.8964    0.9957 H         1 RES1    0.0000
     28 C7         2.4322    2.3674    2.7763 C.3       1 RES1    0.0000
     29 H8         2.2027    3.0415    3.4492 H         1 RES1    0.0000
     30 C8         3.3902    1.3471    3.4329 C.3       1 RES1    0.0000
     31 C9         2.3791    0.6391    4.3604 C.3       1 RES1    0.0000
     32 H9         2.6376   -0.2850    4.5563 H         1 RES1    0.0000
     33 C10        1.0521    0.7250    3.6237 C.3       1 RES1    0.0000
     34 H10        0.7611   -0.1606    3.3250 H         1 RES1    0.0000
     35 C11        0.0659    1.3076    4.6549 C.3       1 RES1    0.0000
     36 H11       -0.7071    0.7182    4.7847 H         1 RES1    0.0000
     37 C12        0.8698    1.4512    5.9254 C.3       1 RES1    0.0000
     38 H12        0.6575    2.2882    6.3667 H         1 RES1    0.0000
     39 H13        0.6746    0.7216    6.5330 H         1 RES1    0.0000
     40 C13        4.0023    0.4129    2.3982 C.3       1 RES1    0.0000
     41 H14        3.3200    0.1493    1.7611 H         1 RES1    0.0000
     42 H15        4.6991    0.8823    1.9146 H         1 RES1    0.0000
     43 N1        -1.1763    2.6999    3.1487 N.pl3     1 RES1    0.0000
     44 N2         1.7961    7.5478    0.4953 N.pl3     1 RES1    0.0000
     45 N3         4.5801   -0.8073    3.0330 N.pl3     1 RES1    0.0000
     46 H16        4.1692    2.3414    4.6659 H         1 RES1    0.0000
     47 H17        2.3885    2.0020    0.1096 H         1 RES1    0.0000
@<TRIPOS>BOND
     1    1   15 1
     2    2   18 1
     3    3   19 1
     4    4   23 1
     5    5   44 2
     6    6   44 2
     7    7   28 1
     8    8   30 1
     9    9   31 1
    10   10   35 1
    11   11   43 2
    12   12   43 2
    13   13   45 2
    14   14   45 2
    15   15   16 1
    16   17   15 1
    17   18   15 1
    18   19   18 1
    19   20   19 1
    20   21    1 1
    21   22   21 1
    22   23   21 1
    23   24   23 1
    24   25    3 1
    25   26   25 1
    26   27   25 1
    27   28   18 1
    28   29   28 1
    29   30   28 1
    30   31   30 1
    31   32   31 1
    32   33    7 1
    33   34   33 1
    34   35   33 1
    35   36   35 1
    36   37    9 1
    37   38   37 1
    38   39   37 1
    39   40   30 1
    40   41   40 1
    41   42   40 1
    42   43   10 1
    43   44    4 1
    44   45   40 1
    45   46    8 1
    46   47    2 1
    47   19   21 1
    48   23   25 1
    49   31   33 1
    50   35   37 1
@<TRIPOS>SUBSTRUCTURE
     1 RES1 1

@<TRIPOS>CRYSIN
   8.5610   11.3110   18.2690  90.0000  90.0000  90.0000  19 1

