# MOL2 file generated by ConQuest
# Please check atom types

@<TRIPOS>MOLECULE
YUKYUA
    29    30     1
SMALL
NO_CHARGES
****
Generated from CSD

@<TRIPOS>ATOM
      1 O1         2.5060    3.5540   -1.3190 O.3       1 RES1    0.0000
      2 H1         2.4432    2.7167   -1.3248 H         1 RES1    0.0000
      3 O2         1.8020    1.3060   -0.3579 O.2       1 RES1    0.0000
      4 O3         1.3886    8.0113    1.0713 O.3       1 RES1    0.0000
      5 H2         1.1568    7.2765    1.4051 H         1 RES1    0.0000
      6 N1         1.9234    4.0510   -0.1729 N.pl3     1 RES1    0.0000
      7 N2         1.1940    5.4327    1.3555 N.2       1 RES1    0.0000
      8 C1         1.8600    5.3439    0.1756 C.2       1 RES1    0.0000
      9 C2         1.3143    3.2634    0.7951 C.2       1 RES1    0.0000
     10 C3         0.8605    4.1767    1.7438 C.2       1 RES1    0.0000
     11 C4         0.1248    3.9323    3.0121 C.3       1 RES1    0.0000
     12 H3         0.6956    3.4270    3.6283 H         1 RES1    0.0000
     13 H4        -0.6881    3.4182    2.8250 H         1 RES1    0.0000
     14 H5        -0.1170    4.7903    3.4194 H         1 RES1    0.0000
     15 C5         1.3005    1.8279    0.6520 C.2       1 RES1    0.0000
     16 C6         0.7068    0.9741    1.7279 C.3       1 RES1    0.0000
     17 H6         0.7647    0.0320    1.4657 H         1 RES1    0.0000
     18 H7        -0.2329    1.2199    1.8586 H         1 RES1    0.0000
     19 H8         1.2000    1.1118    2.5630 H         1 RES1    0.0000
     20 C7         2.3885    6.4918   -0.5420 C.ar      1 RES1    0.0000
     21 C8         2.1267    7.7882   -0.0450 C.ar      1 RES1    0.0000
     22 C9         2.6239    8.9035   -0.7220 C.ar      1 RES1    0.0000
     23 H9         2.4529    9.7759   -0.3856 H         1 RES1    0.0000
     24 C10        3.3638    8.7461   -1.8783 C.ar      1 RES1    0.0000
     25 H10        3.6910    9.5123   -2.3344 H         1 RES1    0.0000
     26 C11        3.6351    7.4775   -2.3810 C.ar      1 RES1    0.0000
     27 H11        4.1448    7.3758   -3.1760 H         1 RES1    0.0000
     28 C12        3.1567    6.3655   -1.7139 C.ar      1 RES1    0.0000
     29 H12        3.3498    5.4996   -2.0527 H         1 RES1    0.0000
@<TRIPOS>BOND
     1    1    2 1
     2    3   15 2
     3    4    5 1
     4    6    1 1
     5    7    8 2
     6    8    6 1
     7    9    6 1
     8   10    7 1
     9   11   10 1
    10   12   11 1
    11   13   11 1
    12   14   11 1
    13   15    9 1
    14   16   15 1
    15   17   16 1
    16   18   16 1
    17   19   16 1
    18   20    8 1
    19   21    4 1
    20   22   21 ar
    21   23   22 1
    22   24   22 ar
    23   25   24 1
    24   26   24 ar
    25   27   26 1
    26   28   20 ar
    27   29   28 1
    28    9   10 2
    29   20   21 ar
    30   26   28 ar
@<TRIPOS>SUBSTRUCTURE
     1 RES1 1

@<TRIPOS>CRYSIN
   7.9232   11.0300   12.3616  90.0000  91.3900  90.0000 231 1

