# MOL2 file generated by ConQuest
# Please check atom types

@<TRIPOS>MOLECULE
YULVUY
    42    44     1
SMALL
NO_CHARGES
****
Generated from CSD

@<TRIPOS>ATOM
      1 O1         5.8791    7.3729   -2.2486 O.2       1 RES1    0.0000
      2 O2         9.9939    2.2901   -0.0033 O.3       1 RES1    0.0000
      3 O3         4.1791    2.7662   -1.9450 O.2       1 RES1    0.0000
      4 O4         7.2281    7.9475   -0.6560 O.2       1 RES1    0.0000
      5 O5        10.6252    4.4131    0.4141 O.2       1 RES1    0.0000
      6 O6        12.7317    0.1965    2.6772 O.3       1 RES1    0.0000
      7 O7         5.3097    1.3675   -0.7361 O.2       1 RES1    0.0000
      8 N1         6.6538    7.1094   -1.3411 N.pl3     1 RES1    0.0000
      9 N2        11.3238    0.5453    2.2975 N.3       1 RES1    0.0000
     10 N3         5.1487    2.4551   -1.2648 N.pl3     1 RES1    0.0000
     11 C1         6.9093    5.6965   -1.0520 C.ar      1 RES1    0.0000
     12 C2         8.1485    5.3433   -0.5472 C.ar      1 RES1    0.0000
     13 C3         8.4125    3.9932   -0.3476 C.ar      1 RES1    0.0000
     14 C4         9.7921    3.6113    0.0791 C.2       1 RES1    0.0000
     15 C5        11.3697    1.8443    0.1265 C.3       1 RES1    0.0000
     16 C6        11.8384    1.7409    1.5539 C.3       1 RES1    0.0000
     17 C7        10.6287    0.8819    3.5424 C.3       1 RES1    0.0000
     18 C8         9.2495    1.3616    3.1857 C.ar      1 RES1    0.0000
     19 C9         8.2917    0.4466    2.7460 C.ar      1 RES1    0.0000
     20 C10        7.0317    0.8721    2.3670 C.ar      1 RES1    0.0000
     21 C11        6.7089    2.2219    2.4367 C.ar      1 RES1    0.0000
     22 C12        6.1985    3.4627   -1.0519 C.ar      1 RES1    0.0000
     23 C13        7.4290    3.0357   -0.5879 C.ar      1 RES1    0.0000
     24 C14        5.9086    4.7866   -1.3380 C.ar      1 RES1    0.0000
     25 C15        7.6425    3.1376    2.8837 C.ar      1 RES1    0.0000
     26 C16        8.9149    2.7084    3.2417 C.ar      1 RES1    0.0000
     27 C17       13.2337    1.1496    1.7152 C.3       1 RES1    0.0000
     28 H1        11.6865    2.5328    2.0760 H         1 RES1    0.0000
     29 H2        11.9104    2.4708   -0.3658 H         1 RES1    0.0000
     30 H3         5.0669    5.0717   -1.7000 H         1 RES1    0.0000
     31 H4         7.6034    2.1196   -0.4658 H         1 RES1    0.0000
     32 H5        11.3645    0.9857   -0.3051 H         1 RES1    0.0000
     33 H6        13.9761    1.7027    2.0608 H         1 RES1    0.0000
     34 H7        11.1147    1.5958    4.0899 H         1 RES1    0.0000
     35 H8         8.4821   -0.4728    2.6924 H         1 RES1    0.0000
     36 H9        13.5642    0.7608    0.9633 H         1 RES1    0.0000
     37 H10       10.5948    0.0498    4.0760 H         1 RES1    0.0000
     38 H11        7.3847    4.0921    2.9760 H         1 RES1    0.0000
     39 H12        8.8066    5.9589   -0.4266 H         1 RES1    0.0000
     40 H13        9.5843    3.3653    3.5266 H         1 RES1    0.0000
     41 H14        6.3886    0.2990    2.0798 H         1 RES1    0.0000
     42 H15        5.8522    2.5292    2.1494 H         1 RES1    0.0000
@<TRIPOS>BOND
     1    1    8 2
     2    2   14 1
     3    3   10 2
     4    4    8 2
     5    5   14 2
     6    6    9 1
     7    7   10 2
     8    8   11 1
     9    9   16 1
    10   10   22 1
    11   11   12 ar
    12   12   13 ar
    13   13   14 1
    14   15    2 1
    15   16   15 1
    16   17    9 1
    17   18   17 1
    18   19   18 ar
    19   20   19 ar
    20   21   20 ar
    21   22   23 ar
    22   23   13 ar
    23   24   11 ar
    24   25   21 ar
    25   26   18 ar
    26   27    6 1
    27   28   16 1
    28   29   15 1
    29   30   24 1
    30   31   23 1
    31   32   15 1
    32   33   27 1
    33   34   17 1
    34   35   19 1
    35   36   27 1
    36   37   17 1
    37   38   25 1
    38   39   12 1
    39   40   26 1
    40   41   20 1
    41   42   21 1
    42   16   27 1
    43   22   24 ar
    44   25   26 ar
@<TRIPOS>SUBSTRUCTURE
     1 RES1 1

@<TRIPOS>CRYSIN
  10.5058   12.1536   13.0043  90.0000 103.2460  90.0000  14 1

