# MOL2 file generated by ConQuest
# Please check atom types

@<TRIPOS>MOLECULE
YUMBOY
    47    49     1
SMALL
NO_CHARGES
****
Generated from CSD

@<TRIPOS>ATOM
      1 C1         8.0256    2.2257    1.4134 C.ar      1 RES1    0.0000
      2 H1         8.6569    2.7640    0.9920 H         1 RES1    0.0000
      3 C2         7.4846    2.6135    2.6118 C.ar      1 RES1    0.0000
      4 H2         7.7539    3.4112    3.0058 H         1 RES1    0.0000
      5 C3         6.5432    1.8284    3.2321 C.ar      1 RES1    0.0000
      6 H3         6.1771    2.1053    4.0401 H         1 RES1    0.0000
      7 C4         6.1337    0.6339    2.6727 C.ar      1 RES1    0.0000
      8 C5         6.7013    0.2486    1.4694 C.ar      1 RES1    0.0000
      9 H4         6.4510   -0.5563    1.0765 H         1 RES1    0.0000
     10 C6         7.6429    1.0578    0.8428 C.ar      1 RES1    0.0000
     11 H5         8.0111    0.7965    0.0298 H         1 RES1    0.0000
     12 C7         5.0634   -0.2541    3.3179 C.3       1 RES1    0.0000
     13 H6         5.3232   -1.1800    3.1252 H         1 RES1    0.0000
     14 C8         5.0063   -0.1343    4.8245 C.2       1 RES1    0.0000
     15 C9         3.8873   -0.0006    5.5182 C.2       1 RES1    0.0000
     16 H7         3.9547    0.0843    6.4418 H         1 RES1    0.0000
     17 C10        2.5283    0.0211    4.9140 C.3       1 RES1    0.0000
     18 H8         2.2098    0.9368    4.8730 H         1 RES1    0.0000
     19 H9         1.9182   -0.4828    5.4759 H         1 RES1    0.0000
     20 C11        2.5354   -0.5792    3.5056 C.3       1 RES1    0.0000
     21 H10        2.7253   -1.5322    3.6311 H         1 RES1    0.0000
     22 C12        3.6879   -0.0439    2.6516 C.3       1 RES1    0.0000
     23 H11        3.6862   -0.5358    1.8038 H         1 RES1    0.0000
     24 C13        1.1963   -0.5280    2.7821 C.ar      1 RES1    0.0000
     25 C14        0.2995    0.4943    2.9909 C.ar      1 RES1    0.0000
     26 H12        0.5247    1.2011    3.5528 H         1 RES1    0.0000
     27 C15       -0.9438    0.4762    2.3644 C.ar      1 RES1    0.0000
     28 H13       -1.5574    1.1511    2.5447 H         1 RES1    0.0000
     29 C16       -1.2719   -0.5141    1.4942 C.ar      1 RES1    0.0000
     30 H14       -2.1023   -0.5196    1.0753 H         1 RES1    0.0000
     31 C17       -0.3621   -1.5027    1.2431 C.ar      1 RES1    0.0000
     32 H15       -0.5701   -2.1776    0.6377 H         1 RES1    0.0000
     33 C18        0.8622   -1.5081    1.8771 C.ar      1 RES1    0.0000
     34 H16        1.4711   -2.1854    1.6906 H         1 RES1    0.0000
     35 C19        6.3222   -0.3383    5.5132 C.2       1 RES1    0.0000
     36 C20        7.7130    0.3251    7.3157 C.3       1 RES1    0.0000
     37 H17        8.1384   -0.5382    7.1964 H         1 RES1    0.0000
     38 H18        7.6075    0.4828    8.2667 H         1 RES1    0.0000
     39 C21        8.5611    1.3853    6.7252 C.3       1 RES1    0.0000
     40 H19        8.7201    1.1890    5.7979 H         1 RES1    0.0000
     41 H20        9.3991    1.4214    7.1927 H         1 RES1    0.0000
     42 H21        8.1163    2.2318    6.8011 H         1 RES1    0.0000
     43 N1         3.4537    1.4034    2.3420 N.pl3     1 RES1    0.0000
     44 O1         7.1910   -1.0126    5.0644 O.2       1 RES1    0.0000
     45 O2         6.4067    0.3215    6.6705 O.3       1 RES1    0.0000
     46 O3         3.5026    2.2065    3.2458 O.2       1 RES1    0.0000
     47 O4         3.1978    1.6881    1.1971 O.2       1 RES1    0.0000
@<TRIPOS>BOND
     1    1    2 1
     2    3    1 ar
     3    4    3 1
     4    5    3 ar
     5    6    5 1
     6    7    5 ar
     7    8    7 ar
     8    9    8 1
     9   10    1 ar
    10   11   10 1
    11   12    7 1
    12   13   12 1
    13   14   12 1
    14   15   14 2
    15   16   15 1
    16   17   15 1
    17   18   17 1
    18   19   17 1
    19   20   17 1
    20   21   20 1
    21   22   12 1
    22   23   22 1
    23   24   20 1
    24   25   24 ar
    25   26   25 1
    26   27   25 ar
    27   28   27 1
    28   29   27 ar
    29   30   29 1
    30   31   29 ar
    31   32   31 1
    32   33   24 ar
    33   34   33 1
    34   35   14 1
    35   36   37 1
    36   38   36 1
    37   39   36 1
    38   40   39 1
    39   41   39 1
    40   42   39 1
    41   43   22 1
    42   44   35 2
    43   45   35 1
    44   46   43 2
    45   47   43 2
    46    8   10 ar
    47   20   22 1
    48   31   33 ar
    49   36   45 1
@<TRIPOS>SUBSTRUCTURE
     1 RES1 1

@<TRIPOS>CRYSIN
  12.2127    6.0204   13.4972  90.0000 112.9250  90.0000   4 1

