# MOL2 file generated by ConQuest
# Please check atom types

@<TRIPOS>MOLECULE
YUMNEA
    45    48     1
SMALL
NO_CHARGES
****
Generated from CSD

@<TRIPOS>ATOM
      1 C1         8.3593    4.3697    2.7001 C.ar      1 RES1    0.0000
      2 H1         8.9697    4.4083    3.4008 H         1 RES1    0.0000
      3 C2         7.5342    5.4415    2.4597 C.ar      1 RES1    0.0000
      4 H2         7.5930    6.1969    2.9997 H         1 RES1    0.0000
      5 C3         6.6337    5.4098    1.4417 C.ar      1 RES1    0.0000
      6 H3         6.0614    6.1283    1.3004 H         1 RES1    0.0000
      7 C4         6.5761    4.3134    0.6271 C.ar      1 RES1    0.0000
      8 H4         5.9786    4.2956   -0.0847 H         1 RES1    0.0000
      9 C5         7.4081    3.2259    0.8591 C.ar      1 RES1    0.0000
     10 H5         7.3659    2.4858    0.2971 H         1 RES1    0.0000
     11 C6         8.2926    3.2319    1.9112 C.ar      1 RES1    0.0000
     12 C7         9.1084    1.9864    2.1989 C.3       1 RES1    0.0000
     13 H6         8.6088    1.2306    1.8270 H         1 RES1    0.0000
     14 C8        10.5386    1.9313    1.5716 C.3       1 RES1    0.0000
     15 C9        11.4779    1.4888    2.7457 C.3       1 RES1    0.0000
     16 C10        9.3350    1.6776    3.6753 C.3       1 RES1    0.0000
     17 H7         9.4468    2.4946    4.1861 H         1 RES1    0.0000
     18 H8         8.5894    1.1778    4.0426 H         1 RES1    0.0000
     19 C11       12.6789    0.6218    2.4446 C.ar      1 RES1    0.0000
     20 C12       12.7792   -0.6748    2.0100 C.ar      1 RES1    0.0000
     21 H9        12.0171   -1.1707    1.8123 H         1 RES1    0.0000
     22 C13       14.0484   -1.2308    1.8721 C.ar      1 RES1    0.0000
     23 H10       14.1350   -2.1038    1.5648 H         1 RES1    0.0000
     24 C14       15.1724   -0.5102    2.1840 C.ar      1 RES1    0.0000
     25 H11       16.0081   -0.9031    2.0766 H         1 RES1    0.0000
     26 C15       15.0913    0.7769    2.6506 C.ar      1 RES1    0.0000
     27 H12       15.8550    1.2623    2.8675 H         1 RES1    0.0000
     28 C16       13.8301    1.3228    2.7857 C.ar      1 RES1    0.0000
     29 C17       12.1669    2.7594    3.3212 C.2       1 RES1    0.0000
     30 C18       10.9680    3.1997    0.8603 C.3       1 RES1    0.0000
     31 H13       10.4855    3.2728    0.0215 H         1 RES1    0.0000
     32 H14       10.7302    3.9664    1.4067 H         1 RES1    0.0000
     33 C19       11.0876    0.6785    5.0357 C.3       1 RES1    0.0000
     34 H15       11.2619    1.5299    5.4447 H         1 RES1    0.0000
     35 H16       11.9044    0.1778    4.9803 H         1 RES1    0.0000
     36 H17       10.4503    0.1937    5.5645 H         1 RES1    0.0000
     37 N1        13.4910    2.5640    3.3165 N.am      1 RES1    0.0000
     38 N2        10.5517    0.8831    3.6949 N.3       1 RES1    0.0000
     39 N3        10.5430    0.7843    0.5517 N.pl3     1 RES1    0.0000
     40 O1        11.5772    3.7419    3.7501 O.2       1 RES1    0.0000
     41 O2         9.9848   -0.2576    0.8542 O.2       1 RES1    0.0000
     42 O3        11.1435    0.9552   -0.4957 O.2       1 RES1    0.0000
     43 O4        12.3585    3.2293    0.5997 O.3       1 RES1    0.0000
     44 H18       12.5030    2.9259   -0.1491 H         1 RES1    0.0000
     45 H19       14.0593    3.1918    3.5579 H         1 RES1    0.0000
@<TRIPOS>BOND
     1    1    2 1
     2    3    1 ar
     3    4    3 1
     4    5    3 ar
     5    6    5 1
     6    7    5 ar
     7    8    7 1
     8    9    7 ar
     9   10    9 1
    10   11    1 ar
    11   12   11 1
    12   13   12 1
    13   14   12 1
    14   15   14 1
    15   16   12 1
    16   17   16 1
    17   18   16 1
    18   19   15 1
    19   20   19 ar
    20   21   20 1
    21   22   20 ar
    22   23   22 1
    23   24   22 ar
    24   25   24 1
    25   26   24 ar
    26   27   26 1
    27   28   19 ar
    28   29   15 1
    29   30   14 1
    30   31   30 1
    31   32   30 1
    32   33   34 1
    33   35   33 1
    34   36   33 1
    35   37   28 1
    36   38   15 1
    37   39   14 1
    38   40   29 2
    39   41   39 2
    40   42   39 2
    41   43   30 1
    42   44   43 1
    43   45   37 1
    44    9   11 ar
    45   16   38 1
    46   26   28 ar
    47   29   37 1
    48   33   38 1
@<TRIPOS>SUBSTRUCTURE
     1 RES1 1

@<TRIPOS>CRYSIN
  17.6049   17.6049   11.2984  90.0000  90.0000  90.0000  86 1

