# MOL2 file generated by ConQuest
# Please check atom types

@<TRIPOS>MOLECULE
YUMPIG
    14    15     1
SMALL
NO_CHARGES
****
Generated from CSD

@<TRIPOS>ATOM
      1 C1         1.0108    4.8201   11.2004 C.2       1 RES1    0.0000
      2 N1         1.7358    4.4137   10.1209 N.am      1 RES1    0.0000
      3 C2         1.1203    3.3022    9.6336 C.2       1 RES1    0.0000
      4 O1         0.0510    3.0555   10.4548 O.3       1 RES1    0.0000
      5 N2        -0.0088    4.0616   11.4616 N.2       1 RES1    0.0000
      6 O2         1.3851    2.5966    8.6865 O.2       1 RES1    0.0000
      7 H1         2.4146    4.8007    9.7308 H         1 RES1    0.0000
      8 C1B        1.3323    5.9801   12.0097 C.2       1 RES1    0.0000
      9 N1B        0.6073    6.3865   13.0892 N.am      1 RES1    0.0000
     10 C2B        1.2227    7.4980   13.5765 C.2       1 RES1    0.0000
     11 O1B        2.2921    7.7447   12.7553 O.3       1 RES1    0.0000
     12 N2B        2.3518    6.7386   11.7485 N.2       1 RES1    0.0000
     13 O2B        0.9579    8.2036   14.5236 O.2       1 RES1    0.0000
     14 H1B       -0.0715    5.9995   13.4793 H         1 RES1    0.0000
@<TRIPOS>BOND
     1    1    2 1
     2    2    3 1
     3    3    4 1
     4    4    5 1
     5    5    1 2
     6    6    3 2
     7    7    2 1
     8    8    1 1
     9    9    8 1
    10   10    9 1
    11   11   10 1
    12   12    8 2
    13   13   10 2
    14   14    9 1
    15   11   12 1
@<TRIPOS>SUBSTRUCTURE
     1 RES1 1

@<TRIPOS>CRYSIN
   4.7465    5.4001   11.6671  90.0000  95.9120  90.0000 231 1

