# MOL2 file generated by ConQuest
# Please check atom types

@<TRIPOS>MOLECULE
YUPROS
    38    39     1
SMALL
NO_CHARGES
****
Generated from CSD

@<TRIPOS>ATOM
      1 O1         5.3481    1.7295    4.7835 O.3       1 RES1    0.0000
      2 H1         5.8733    1.8999    5.4163 H         1 RES1    0.0000
      3 C1         4.0921    1.9857    5.2390 C.ar      1 RES1    0.0000
      4 C2         3.8729    2.5077    6.5273 C.ar      1 RES1    0.0000
      5 O2         7.0694    2.8034    8.1687 O.3       1 RES1    0.0000
      6 H2         7.7795    2.4403    7.9026 H         1 RES1    0.0000
      7 N1         6.1618    2.4616    7.1807 N.2       1 RES1    0.0000
      8 C3         2.5625    2.7193    6.9489 C.ar      1 RES1    0.0000
      9 H3         2.4098    3.0575    7.8239 H         1 RES1    0.0000
     10 C4         1.4749    2.4524    6.1338 C.ar      1 RES1    0.0000
     11 C5         1.7303    1.9537    4.8543 C.ar      1 RES1    0.0000
     12 H4         0.9956    1.7748    4.2794 H         1 RES1    0.0000
     13 C6         3.0192    1.7075    4.3889 C.ar      1 RES1    0.0000
     14 C7         4.9634    2.8008    7.4522 C.2       1 RES1    0.0000
     15 H5         4.7779    3.2509    8.2677 H         1 RES1    0.0000
     16 C8         0.0691    2.7052    6.6276 C.3       1 RES1    0.0000
     17 H6         0.0977    3.4642    7.2616 H         1 RES1    0.0000
     18 H7        -0.4824    2.9864    5.8553 H         1 RES1    0.0000
     19 N2        -0.6158    1.5733    7.2948 N.3       1 RES1    0.0000
     20 C9         0.1159    1.0735    8.4769 C.3       1 RES1    0.0000
     21 H8         0.2997    1.8245    9.0945 H         1 RES1    0.0000
     22 H9         0.9825    0.6897    8.1927 H         1 RES1    0.0000
     23 C10       -0.7006    0.0101    9.1967 C.3       1 RES1    0.0000
     24 H10       -0.1848   -0.3356    9.9678 H         1 RES1    0.0000
     25 H11       -1.5360    0.4138    9.5430 H         1 RES1    0.0000
     26 C11       -1.0423   -1.1353    8.2622 C.3       1 RES1    0.0000
     27 H12       -1.6333   -1.7790    8.7275 H         1 RES1    0.0000
     28 H13       -0.2142   -1.6098    8.0021 H         1 RES1    0.0000
     29 C12       -1.7401   -0.6102    7.0204 C.3       1 RES1    0.0000
     30 H14       -2.6253   -0.2432    7.2692 H         1 RES1    0.0000
     31 H15       -1.8835   -1.3538    6.3826 H         1 RES1    0.0000
     32 C13       -0.9084    0.4774    6.3547 C.3       1 RES1    0.0000
     33 H16       -0.0583    0.0882    6.0289 H         1 RES1    0.0000
     34 H17       -1.4002    0.8362    5.5737 H         1 RES1    0.0000
     35 C14        3.2641    1.1257    3.0216 C.3       1 RES1    0.0000
     36 H18        2.4062    0.9059    2.6020 H         1 RES1    0.0000
     37 H19        3.8051    0.3129    3.1045 H         1 RES1    0.0000
     38 H20        3.7404    1.7805    2.4692 H         1 RES1    0.0000
@<TRIPOS>BOND
     1    1    2 1
     2    3    1 1
     3    4    3 ar
     4    5    6 1
     5    7    5 1
     6    8    4 ar
     7    9    8 1
     8   10    8 ar
     9   11   10 ar
    10   12   11 1
    11   13    3 ar
    12   14    4 1
    13   15   14 1
    14   16   10 1
    15   17   16 1
    16   18   16 1
    17   19   16 1
    18   20   19 1
    19   21   20 1
    20   22   20 1
    21   23   20 1
    22   24   23 1
    23   25   23 1
    24   26   23 1
    25   27   26 1
    26   28   26 1
    27   29   26 1
    28   30   29 1
    29   31   29 1
    30   32   19 1
    31   33   32 1
    32   34   32 1
    33   35   13 1
    34   36   35 1
    35   37   35 1
    36   38   35 1
    37    7   14 2
    38   11   13 ar
    39   29   32 1
@<TRIPOS>SUBSTRUCTURE
     1 RES1 1

@<TRIPOS>CRYSIN
   9.8782   14.2209   10.0149  90.0000 108.7690  90.0000  14 1

