# MOL2 file generated by ConQuest
# Please check atom types

@<TRIPOS>MOLECULE
YUPZUF
    35    36     1
SMALL
NO_CHARGES
****
Generated from CSD

@<TRIPOS>ATOM
      1 O1         1.9731    5.7629    2.1336 O.3       1 RES1    0.0000
      2 N1         2.7000    3.8049    3.2879 N.2       1 RES1    0.0000
      3 N2         2.5001    6.6725    1.1788 N.2       1 RES1    0.0000
      4 N3         0.2184   -0.2256    7.6757 N.3       1 RES1    0.0000
      5 C1        -1.1727   -0.5035    7.9920 C.3       1 RES1    0.0000
      6 H1        -1.5966    0.3083    8.3408 H         1 RES1    0.0000
      7 H2        -1.2187   -1.2119    8.6677 H         1 RES1    0.0000
      8 H3        -1.6399   -0.7942    7.1807 H         1 RES1    0.0000
      9 C2         0.5326    0.6890    6.7112 C.ar      1 RES1    0.0000
     10 C3         1.2354   -1.1080    8.2229 C.3       1 RES1    0.0000
     11 H4         1.4858   -1.7748    7.5496 H         1 RES1    0.0000
     12 H5         0.8817   -1.5619    9.0167 H         1 RES1    0.0000
     13 H6         2.0244   -0.5828    8.4718 H         1 RES1    0.0000
     14 C4         1.8648    0.8506    6.2569 C.ar      1 RES1    0.0000
     15 H7         2.5463    0.2821    6.5949 H         1 RES1    0.0000
     16 C5         2.1860    1.8156    5.3363 C.ar      1 RES1    0.0000
     17 H8         3.0898    1.9086    5.0585 H         1 RES1    0.0000
     18 C6         1.2125    2.6681    4.7957 C.ar      1 RES1    0.0000
     19 C7        -0.1118    2.4869    5.2188 C.ar      1 RES1    0.0000
     20 H9        -0.7921    3.0426    4.8563 H         1 RES1    0.0000
     21 C8        -0.4558    1.5258    6.1456 C.ar      1 RES1    0.0000
     22 H10       -1.3640    1.4254    6.4062 H         1 RES1    0.0000
     23 C9         1.5333    3.6926    3.8330 C.2       1 RES1    0.0000
     24 H11        0.8570    4.3126    3.5882 H         1 RES1    0.0000
     25 C10        2.9312    4.8152    2.3849 C.2       1 RES1    0.0000
     26 C11        4.0319    5.0582    1.6303 C.2       1 RES1    0.0000
     27 C12        5.2994    4.2723    1.5602 C.3       1 RES1    0.0000
     28 H12        5.3167    3.6146    2.2867 H         1 RES1    0.0000
     29 H13        6.0649    4.8779    1.6495 H         1 RES1    0.0000
     30 H14        5.3488    3.8079    0.6990 H         1 RES1    0.0000
     31 C13        3.7021    6.2293    0.9067 C.2       1 RES1    0.0000
     32 C14        4.5718    6.9559   -0.0708 C.3       1 RES1    0.0000
     33 H15        4.6879    6.4081   -0.8751 H         1 RES1    0.0000
     34 H16        5.4467    7.1284    0.3353 H         1 RES1    0.0000
     35 H17        4.1507    7.8066   -0.3133 H         1 RES1    0.0000
@<TRIPOS>BOND
     1    1    3 1
     2    2   23 2
     3    3   31 2
     4    4    5 1
     5    5    6 1
     6    7    5 1
     7    8    5 1
     8    9    4 1
     9   10    4 1
    10   11   10 1
    11   12   10 1
    12   13   10 1
    13   14    9 ar
    14   15   14 1
    15   16   14 ar
    16   17   16 1
    17   18   16 ar
    18   19   18 ar
    19   20   19 1
    20   21    9 ar
    21   22   21 1
    22   23   18 1
    23   24   23 1
    24   25    1 1
    25   26   25 2
    26   27   26 1
    27   28   27 1
    28   29   27 1
    29   30   27 1
    30   31   26 1
    31   32   31 1
    32   33   32 1
    33   34   32 1
    34   35   32 1
    35    2   25 1
    36   19   21 ar
@<TRIPOS>SUBSTRUCTURE
     1 RES1 1

@<TRIPOS>CRYSIN
   6.5772    9.1246   10.5380  92.9950  95.1830  90.8730   2 1

