# MOL2 file generated by ConQuest
# Please check atom types

@<TRIPOS>MOLECULE
YUQFEX
    30    31     1
SMALL
NO_CHARGES
****
Generated from CSD

@<TRIPOS>ATOM
      1 C1         6.8418    8.0743    7.9854 C.ar      1 RES1    0.0000
      2 C2         5.8941    8.3604    8.9677 C.ar      1 RES1    0.0000
      3 C3         5.6508    7.5399   10.0563 C.ar      1 RES1    0.0000
      4 H1         4.9943    7.7427   10.6820 H         1 RES1    0.0000
      5 C4         6.4297    6.4062   10.1677 C.ar      1 RES1    0.0000
      6 C5         7.3927    6.0755    9.2488 C.ar      1 RES1    0.0000
      7 H2         7.9050    5.3063    9.3537 H         1 RES1    0.0000
      8 C6         7.5857    6.9135    8.1570 C.ar      1 RES1    0.0000
      9 H3         8.2306    6.6918    7.5251 H         1 RES1    0.0000
     10 N1         5.1155    9.6091    8.9281 N.pl3     1 RES1    0.0000
     11 O1         5.7298   10.6430    8.7161 O.2       1 RES1    0.0000
     12 O2         3.9184    9.5406    9.1518 O.2       1 RES1    0.0000
     13 N2         6.2189    5.5260   11.3311 N.pl3     1 RES1    0.0000
     14 O3         5.3355    5.7966   12.0969 O.2       1 RES1    0.0000
     15 O4         6.9434    4.5662   11.4629 O.2       1 RES1    0.0000
     16 C7         7.0230    8.9384    6.7416 C.3       1 RES1    0.0000
     17 H4         7.3716    9.8156    7.0043 H         1 RES1    0.0000
     18 O5         7.9397    8.3146    5.8722 O.3       1 RES1    0.0000
     19 H5         8.4223    8.9013    5.5021 H         1 RES1    0.0000
     20 N3         5.7149    9.1019    6.1533 N.pl3     1 RES1    0.0000
     21 H6         5.2903    8.3548    5.9380 H         1 RES1    0.0000
     22 N4         4.2089   10.1108    4.7492 N.ar      1 RES1    0.0000
     23 C8         5.4235   10.1528    5.3266 C.ar      1 RES1    0.0000
     24 N5         6.3273   11.1245    5.1748 N.ar      1 RES1    0.0000
     25 C9         5.9903   12.1050    4.3344 C.ar      1 RES1    0.0000
     26 H7         6.5892   12.8057    4.2103 H         1 RES1    0.0000
     27 C10        4.8036   12.1322    3.6440 C.ar      1 RES1    0.0000
     28 H8         4.6047   12.8074    3.0367 H         1 RES1    0.0000
     29 C11        3.9234   11.1032    3.9003 C.ar      1 RES1    0.0000
     30 H9         3.1003   11.0989    3.4672 H         1 RES1    0.0000
@<TRIPOS>BOND
     1    1    2 ar
     2    2    3 ar
     3    3    4 1
     4    5    3 ar
     5    6    5 ar
     6    7    6 1
     7    8    1 ar
     8    9    8 1
     9   10    2 1
    10   11   10 2
    11   12   10 2
    12   13    5 1
    13   14   13 2
    14   15   13 2
    15   16    1 1
    16   17   16 1
    17   18   16 1
    18   19   18 1
    19   20   16 1
    20   21   20 1
    21   22   23 ar
    22   23   20 1
    23   24   23 ar
    24   25   24 ar
    25   26   25 1
    26   27   25 ar
    27   28   27 1
    28   29   22 ar
    29   30   29 1
    30    6    8 ar
    31   27   29 ar
@<TRIPOS>SUBSTRUCTURE
     1 RES1 1

@<TRIPOS>CRYSIN
   5.5090   10.8660   11.4750  69.5500  89.4300  80.6000   2 1

