# MOL2 file generated by ConQuest
# Please check atom types

@<TRIPOS>MOLECULE
YUQMAZ
    29    30     1
SMALL
NO_CHARGES
****
Generated from CSD

@<TRIPOS>ATOM
      1 O1         8.7510    4.7682   -0.5274 O.3       1 RES1    0.0000
      2 O2        12.7100    7.6614    3.3251 O.2       1 RES1    0.0000
      3 O3        11.9073    6.1636    4.6547 O.2       1 RES1    0.0000
      4 O4         8.2886    3.4111    3.4053 O.2       1 RES1    0.0000
      5 N1        11.9799    6.7021    3.5618 N.pl3     1 RES1    0.0000
      6 N2         7.5931    3.1634    1.2729 N.am      1 RES1    0.0000
      7 C1         9.5369    5.2426    0.4625 C.ar      1 RES1    0.0000
      8 C2        10.4995    6.2158    0.2046 C.ar      1 RES1    0.0000
      9 C3        11.3104    6.6983    1.1941 C.ar      1 RES1    0.0000
     10 C4        11.1466    6.1962    2.4784 C.ar      1 RES1    0.0000
     11 C5        10.2061    5.2431    2.7625 C.ar      1 RES1    0.0000
     12 C6         9.3700    4.7453    1.7687 C.ar      1 RES1    0.0000
     13 C7         8.3628    3.7253    2.2046 C.2       1 RES1    0.0000
     14 C8         6.5779    2.1826    1.4271 C.ar      1 RES1    0.0000
     15 C9         6.2927    1.5308    2.6161 C.ar      1 RES1    0.0000
     16 C10        5.2926    0.5695    2.6381 C.ar      1 RES1    0.0000
     17 C11        4.5859    0.2535    1.5042 C.ar      1 RES1    0.0000
     18 C12        4.8645    0.9105    0.3275 C.ar      1 RES1    0.0000
     19 C13        5.8591    1.8617    0.2810 C.ar      1 RES1    0.0000
     20 H1         8.9053    5.1797   -1.2197 H         1 RES1    0.0000
     21 H2        10.5932    6.5446   -0.6603 H         1 RES1    0.0000
     22 H3         7.7303    3.4314    0.4673 H         1 RES1    0.0000
     23 H4        11.9534    7.3450    1.0122 H         1 RES1    0.0000
     24 H5        10.1238    4.9243    3.6324 H         1 RES1    0.0000
     25 H6         6.7652    1.7360    3.3901 H         1 RES1    0.0000
     26 H7         5.0988    0.1308    3.4350 H         1 RES1    0.0000
     27 H8         3.9234   -0.3992    1.5319 H         1 RES1    0.0000
     28 H9         4.3779    0.7114   -0.4395 H         1 RES1    0.0000
     29 H10        6.0507    2.2914   -0.5207 H         1 RES1    0.0000
@<TRIPOS>BOND
     1    1    7 1
     2    2    5 2
     3    3    5 2
     4    4   13 2
     5    5   10 1
     6    6   13 1
     7    7    8 ar
     8    8    9 ar
     9    9   10 ar
    10   10   11 ar
    11   11   12 ar
    12   12    7 ar
    13   13   12 1
    14   14    6 1
    15   15   14 ar
    16   16   15 ar
    17   17   16 ar
    18   18   17 ar
    19   19   14 ar
    20   20    1 1
    21   21    8 1
    22   22    6 1
    23   23    9 1
    24   24   11 1
    25   25   15 1
    26   26   16 1
    27   27   17 1
    28   28   18 1
    29   29   19 1
    30   18   19 ar
@<TRIPOS>SUBSTRUCTURE
     1 RES1 1

@<TRIPOS>CRYSIN
   9.9012    4.7821   12.3369  90.0000  97.9190  90.0000   7 1

