# MOL2 file generated by ConQuest
# Please check atom types

@<TRIPOS>MOLECULE
YURHAV
    50    52     1
SMALL
USER_CHARGES
****
Generated from CSD

@<TRIPOS>ATOM
      1 N1         0.9974    4.4239    2.5498 N.pl3     1 RES1    1.0000
      2 C1         1.9054    3.4981    2.8709 C.2       1 RES1    0.0000
      3 C2         1.7381    2.2807    1.9647 C.3       1 RES1    0.0000
      4 C3         0.6176    2.7420    1.0629 C.ar      1 RES1    0.0000
      5 C4         0.0181    2.1238   -0.0230 C.ar      1 RES1    0.0000
      6 H1         0.2660    1.2436   -0.2799 H         1 RES1    0.0000
      7 C5        -0.9576    2.8256   -0.7302 C.ar      1 RES1    0.0000
      8 H2        -1.3851    2.4148   -1.4724 H         1 RES1    0.0000
      9 C6        -1.3121    4.1142   -0.3659 C.ar      1 RES1    0.0000
     10 H3        -1.9646    4.5760   -0.8785 H         1 RES1    0.0000
     11 C7        -0.7355    4.7508    0.7336 C.ar      1 RES1    0.0000
     12 H4        -0.9824    5.6324    0.9920 H         1 RES1    0.0000
     13 C8         0.2214    4.0209    1.4286 C.ar      1 RES1    0.0000
     14 C9         3.0055    2.0148    1.1339 C.3       1 RES1    0.0000
     15 H5         3.2628    2.8343    0.6601 H         1 RES1    0.0000
     16 H6         2.8271    1.3040    0.4842 H         1 RES1    0.0000
     17 H7         3.7337    1.7386    1.7287 H         1 RES1    0.0000
     18 C10        1.3265    1.0275    2.7615 C.3       1 RES1    0.0000
     19 H8         0.5073    1.2164    3.2654 H         1 RES1    0.0000
     20 H9         2.0443    0.7848    3.3836 H         1 RES1    0.0000
     21 H10        1.1662    0.2837    2.1429 H         1 RES1    0.0000
     22 C11        0.8052    5.7088    3.2384 C.3       1 RES1    0.0000
     23 H11        0.9989    5.5902    4.2026 H         1 RES1    0.0000
     24 H12       -0.1420    5.9826    3.1519 H         1 RES1    0.0000
     25 C12        1.6907    6.8099    2.6880 C.3       1 RES1    0.0000
     26 H13        1.5650    7.6397    3.2124 H         1 RES1    0.0000
     27 H14        2.6417    6.5410    2.7500 H         1 RES1    0.0000
     28 O1         1.3401    7.0315    1.3468 O.3       1 RES1    0.0000
     29 H15        1.5885    7.8631    1.1622 H         1 RES1    0.0000
     30 C13        2.8863    3.7682    3.8529 C.2       1 RES1    0.0000
     31 H16        2.8638    4.6213    4.2725 H         1 RES1    0.0000
     32 C14        3.8670    2.8953    4.2459 C.2       1 RES1    0.0000
     33 H17        3.8065    2.0043    3.9255 H         1 RES1    0.0000
     34 C15        5.2396    4.5585    5.5707 C.ar      1 RES1    0.0000
     35 O2         4.5010    5.5443    5.3087 O.2       1 RES1   -1.0000
     36 C16        6.4521    4.7453    6.3657 C.ar      1 RES1    0.0000
     37 O3         6.6284    6.0396    6.7542 O.3       1 RES1    0.0000
     38 C17        7.3047    3.7193    6.6465 C.ar      1 RES1    0.0000
     39 H18        8.0966    3.8727    7.1493 H         1 RES1    0.0000
     40 C18        6.9867    2.4223    6.1742 C.ar      1 RES1    0.0000
     41 N2         7.8776    1.3456    6.4876 N.pl3     1 RES1    0.0000
     42 O4         8.8982    1.5901    7.1389 O.2       1 RES1    0.0000
     43 O5         7.6022    0.1971    6.0999 O.2       1 RES1    0.0000
     44 C19        5.8607    2.1691    5.4273 C.ar      1 RES1    0.0000
     45 H19        5.6789    1.2859    5.1321 H         1 RES1    0.0000
     46 C20        4.9765    3.2110    5.0976 C.ar      1 RES1    0.0000
     47 C21        7.7487    6.3071    7.5960 C.3       1 RES1    0.0000
     48 H20        7.7389    7.2503    7.8632 H         1 RES1    0.0000
     49 H21        8.5765    6.1154    7.1086 H         1 RES1    0.0000
     50 H22        7.7004    5.7411    8.3938 H         1 RES1    0.0000
@<TRIPOS>BOND
     1    1    2 2
     2    2    3 1
     3    3    4 1
     4    4    5 ar
     5    5    6 1
     6    7    5 ar
     7    8    7 1
     8    9    7 ar
     9   10    9 1
    10   11    9 ar
    11   12   11 1
    12   13    1 1
    13   14    3 1
    14   15   14 1
    15   16   14 1
    16   17   14 1
    17   18    3 1
    18   19   18 1
    19   20   18 1
    20   21   18 1
    21   22    1 1
    22   23   22 1
    23   24   22 1
    24   25   22 1
    25   26   25 1
    26   27   25 1
    27   28   25 1
    28   29   28 1
    29   30    2 1
    30   31   30 1
    31   32   30 2
    32   33   32 1
    33   34   35 1
    34   36   34 ar
    35   37   36 1
    36   38   36 ar
    37   39   38 1
    38   40   38 ar
    39   41   40 1
    40   42   41 2
    41   43   41 2
    42   44   40 ar
    43   45   44 1
    44   46   32 1
    45   47   37 1
    46   48   47 1
    47   49   47 1
    48   50   47 1
    49    4   13 ar
    50   11   13 ar
    51   34   46 ar
    52   44   46 ar
@<TRIPOS>SUBSTRUCTURE
     1 RES1 1

@<TRIPOS>CRYSIN
   6.7336   30.1846    9.5144  90.0000  96.3140  90.0000 231 1

