# MOL2 file generated by ConQuest
# Please check atom types

@<TRIPOS>MOLECULE
YUTMOR
    39    41     1
SMALL
USER_CHARGES
****
Generated from CSD

@<TRIPOS>ATOM
      1 O1         9.6506    4.7673    3.0185 O.3       1 RES1    0.0000
      2 O2         9.4666    6.4810    1.5941 O.2       1 RES1    0.0000
      3 O3         8.0039    0.9255    1.3962 O.2       1 RES1   -1.0000
      4 O4         6.6044    6.3819    1.1675 O.2       1 RES1    0.0000
      5 O5         6.4330    4.7854   -0.3709 O.3       1 RES1    0.0000
      6 C1         5.3606    5.5474   -1.0193 C.3       1 RES1    0.0000
      7 H1         4.5708    5.5167   -0.4745 H         1 RES1    0.0000
      8 H2         5.1713    5.1636   -1.8793 H         1 RES1    0.0000
      9 H3         5.6370    6.4601   -1.1298 H         1 RES1    0.0000
     10 C2         5.3497    3.1582    5.2447 C.ar      1 RES1    0.0000
     11 H4         4.8134    3.1484    6.0053 H         1 RES1    0.0000
     12 C3         5.6809    2.0487    4.7093 C.ar      1 RES1    0.0000
     13 H5         5.3672    1.2700    5.1085 H         1 RES1    0.0000
     14 C4         6.4808    1.9105    3.5667 C.ar      1 RES1    0.0000
     15 H6         6.7100    1.0802    3.2155 H         1 RES1    0.0000
     16 C5         6.9263    3.1638    2.9680 C.ar      1 RES1    0.0000
     17 C6         7.7809    3.2461    1.7534 C.2       1 RES1    0.0000
     18 C7         8.2610    4.5049    1.0775 C.3       1 RES1    0.0000
     19 C8         9.1612    5.3813    1.9495 C.2       1 RES1    0.0000
     20 C9        10.6270    5.5139    3.7611 C.3       1 RES1    0.0000
     21 H7        11.2586    5.9061    3.1547 H         1 RES1    0.0000
     22 H8        11.0870    4.9264    4.3659 H         1 RES1    0.0000
     23 H9        10.1883    6.2061    4.2605 H         1 RES1    0.0000
     24 N1         8.1528    2.1771    1.2043 N.pl3     1 RES1    1.0000
     25 C10        9.0147    2.6334   -0.0488 C.ar      1 RES1    0.0000
     26 C11        9.5931    1.7766   -0.9037 C.ar      1 RES1    0.0000
     27 H10        9.4917    0.8583   -0.7966 H         1 RES1    0.0000
     28 C12       10.3111    2.2650   -1.9024 C.ar      1 RES1    0.0000
     29 H11       10.7340    1.7040   -2.5123 H         1 RES1    0.0000
     30 C13       10.4176    3.7946   -2.0155 C.ar      1 RES1    0.0000
     31 H12       10.9126    4.2090   -2.6853 H         1 RES1    0.0000
     32 C14        9.7287    4.5133   -1.0578 C.ar      1 RES1    0.0000
     33 H13        9.7447    5.4427   -1.0964 H         1 RES1    0.0000
     34 C15        9.0595    3.9369   -0.1045 C.ar      1 RES1    0.0000
     35 C16        5.7442    4.3263    4.7522 C.ar      1 RES1    0.0000
     36 H14        5.4900    5.1106    5.1830 H         1 RES1    0.0000
     37 C17        6.5080    4.4016    3.6369 C.ar      1 RES1    0.0000
     38 H15        6.7644    5.2292    3.2986 H         1 RES1    0.0000
     39 C18        6.9955    5.3729    0.6621 C.2       1 RES1    0.0000
@<TRIPOS>BOND
     1    1   19 1
     2    2   19 2
     3    3   24 1
     4    4   39 2
     5    5    6 1
     6    6    7 1
     7    8    6 1
     8    9    6 1
     9   10   11 1
    10   12   10 ar
    11   13   12 1
    12   14   12 ar
    13   15   14 1
    14   16   14 ar
    15   17   16 1
    16   18   17 1
    17   19   18 1
    18   20    1 1
    19   21   20 1
    20   22   20 1
    21   23   20 1
    22   24   17 2
    23   25   24 1
    24   26   25 ar
    25   27   26 1
    26   28   26 ar
    27   29   28 1
    28   30   28 ar
    29   31   30 1
    30   32   30 ar
    31   33   32 1
    32   34   18 1
    33   35   10 ar
    34   36   35 1
    35   37   16 ar
    36   38   37 1
    37   39    5 1
    38   18   39 1
    39   25   34 ar
    40   32   34 ar
    41   35   37 ar
@<TRIPOS>SUBSTRUCTURE
     1 RES1 1

@<TRIPOS>CRYSIN
  12.5420   13.9557    8.7711  90.0000 102.4280  90.0000   9 1

