# MOL2 file generated by ConQuest
# Please check atom types

@<TRIPOS>MOLECULE
YUWPEL
    49    50     1
SMALL
NO_CHARGES
****
Generated from CSD

@<TRIPOS>ATOM
      1 O1        -5.2766    0.1461  -18.3863 O.2       1 RES1    0.0000
      2 O2        -6.2093   -0.9616  -20.0570 O.3       1 RES1    0.0000
      3 O3        -4.9181    2.8513  -19.9676 O.2       1 RES1    0.0000
      4 O4        -5.7119    4.5996  -15.9434 O.2       1 RES1    0.0000
      5 O5        -6.7830    2.1658  -15.8448 O.3       1 RES1    0.0000
      6 N1        -3.4893    2.9595  -18.2511 N.am      1 RES1    0.0000
      7 N2        -5.6853    2.4591  -16.6538 N.am      1 RES1    0.0000
      8 C1        -3.2126    1.1640  -19.9263 C.3       1 RES1    0.0000
      9 C2        -4.1887    0.1495  -20.5268 C.3       1 RES1    0.0000
     10 C3        -4.7288    0.5279  -21.9109 C.3       1 RES1    0.0000
     11 C4        -3.6060    0.9087  -22.8551 C.3       1 RES1    0.0000
     12 C5        -2.7179    1.9921  -22.2799 C.3       1 RES1    0.0000
     13 C6        -2.1296    1.5585  -20.9416 C.3       1 RES1    0.0000
     14 C7        -5.2759   -0.1967  -19.5505 C.2       1 RES1    0.0000
     15 C8        -3.9442    2.3832  -19.3947 C.2       1 RES1    0.0000
     16 C9        -2.3532    2.4971  -17.4742 C.3       1 RES1    0.0000
     17 C10       -4.2257    4.0694  -17.6988 C.3       1 RES1    0.0000
     18 C11       -5.2843    3.7301  -16.6836 C.2       1 RES1    0.0000
     19 C12       -6.5049    1.0041  -15.0290 C.3       1 RES1    0.0000
     20 C13       -5.3045    1.1467  -14.1650 C.ar      1 RES1    0.0000
     21 C14       -5.0893    2.2728  -13.3904 C.ar      1 RES1    0.0000
     22 C15       -3.9679    2.3786  -12.5998 C.ar      1 RES1    0.0000
     23 C16       -3.0512    1.3572  -12.5539 C.ar      1 RES1    0.0000
     24 C17       -3.2552    0.2323  -13.3010 C.ar      1 RES1    0.0000
     25 C18       -4.3676    0.1242  -14.0940 C.ar      1 RES1    0.0000
     26 H1        -6.7543   -1.1111  -19.4061 H         1 RES1    0.0000
     27 H2        -5.4939    1.8300  -17.2932 H         1 RES1    0.0000
     28 H3        -2.7662    0.7338  -19.1678 H         1 RES1    0.0000
     29 H4        -3.6731   -0.6740  -20.6551 H         1 RES1    0.0000
     30 H5        -5.2186   -0.2231  -22.2822 H         1 RES1    0.0000
     31 H6        -5.3430    1.2733  -21.8239 H         1 RES1    0.0000
     32 H7        -3.9854    1.2204  -23.6916 H         1 RES1    0.0000
     33 H8        -3.0687    0.1242  -23.0453 H         1 RES1    0.0000
     34 H9        -3.2364    2.8030  -22.1562 H         1 RES1    0.0000
     35 H10       -1.9997    2.1854  -22.9010 H         1 RES1    0.0000
     36 H11       -1.6007    2.2854  -20.5772 H         1 RES1    0.0000
     37 H12       -1.5378    0.8028  -21.0859 H         1 RES1    0.0000
     38 H13       -2.6586    1.9001  -16.7867 H         1 RES1    0.0000
     39 H14       -1.9123    3.2493  -17.0732 H         1 RES1    0.0000
     40 H15       -1.7391    2.0347  -18.0494 H         1 RES1    0.0000
     41 H16       -4.6491    4.5456  -18.4299 H         1 RES1    0.0000
     42 H17       -3.5927    4.6779  -17.2863 H         1 RES1    0.0000
     43 H18       -6.3812    0.2369  -15.6088 H         1 RES1    0.0000
     44 H19       -7.2749    0.8258  -14.4675 H         1 RES1    0.0000
     45 H20       -5.7091    2.9664  -13.4042 H         1 RES1    0.0000
     46 H21       -3.8303    3.1469  -12.0933 H         1 RES1    0.0000
     47 H22       -2.2945    1.4320  -12.0177 H         1 RES1    0.0000
     48 H23       -2.6383   -0.4624  -13.2689 H         1 RES1    0.0000
     49 H24       -4.4975   -0.6487  -14.5935 H         1 RES1    0.0000
@<TRIPOS>BOND
     1    1   14 2
     2    2   14 1
     3    3   15 2
     4    4   18 2
     5    5    7 1
     6    6   15 1
     7    7   18 1
     8    8    9 1
     9    9   10 1
    10   10   11 1
    11   11   12 1
    12   12   13 1
    13   13    8 1
    14   14    9 1
    15   15    8 1
    16   16    6 1
    17   17    6 1
    18   18   17 1
    19   19    5 1
    20   20   19 1
    21   21   20 ar
    22   22   21 ar
    23   23   22 ar
    24   24   23 ar
    25   25   20 ar
    26   26    2 1
    27   27    7 1
    28   28    8 1
    29   29    9 1
    30   30   10 1
    31   31   10 1
    32   32   11 1
    33   33   11 1
    34   34   12 1
    35   35   12 1
    36   36   13 1
    37   37   13 1
    38   38   16 1
    39   39   16 1
    40   40   16 1
    41   41   17 1
    42   42   17 1
    43   43   19 1
    44   44   19 1
    45   45   21 1
    46   46   22 1
    47   47   23 1
    48   48   24 1
    49   49   25 1
    50   24   25 ar
@<TRIPOS>SUBSTRUCTURE
     1 RES1 1

@<TRIPOS>CRYSIN
   6.9870   11.5020   22.9170  90.0000  90.0000  90.0000  19 1

