# MOL2 file generated by ConQuest
# Please check atom types

@<TRIPOS>MOLECULE
YUXCUR
    46    46     1
SMALL
NO_CHARGES
****
Generated from CSD

@<TRIPOS>ATOM
      1 O1        14.4892    2.6367   -2.2525 O.3       1 RES1    0.0000
      2 H1        15.1454    2.1594   -1.9973 H         1 RES1    0.0000
      3 O2        12.1797    3.3913    0.5319 O.3       1 RES1    0.0000
      4 N1        12.5042    2.7276    1.7896 N.3       1 RES1    0.0000
      5 C1        13.1681    4.9263   -0.9962 C.3       1 RES1    0.0000
      6 H2        12.2645    5.0228   -1.3617 H         1 RES1    0.0000
      7 H3        13.8246    5.0213   -1.7181 H         1 RES1    0.0000
      8 H4        13.3226    5.6192   -0.3206 H         1 RES1    0.0000
      9 C2        13.3131    3.5540   -0.3572 C.3       1 RES1    0.0000
     10 H5        14.1569    3.5307    0.1792 H         1 RES1    0.0000
     11 C3        13.3537    2.4355   -1.4038 C.3       1 RES1    0.0000
     12 H6        13.4534    1.5584   -0.9336 H         1 RES1    0.0000
     13 C4        12.1094    2.3850   -2.2770 C.3       1 RES1    0.0000
     14 H7        11.3069    2.4338   -1.6993 H         1 RES1    0.0000
     15 H8        12.1017    3.1737   -2.8762 H         1 RES1    0.0000
     16 C5        12.0409    1.1215   -3.1177 C.3       1 RES1    0.0000
     17 H9        12.8243    1.0774   -3.7060 H         1 RES1    0.0000
     18 H10       11.2240    1.1343   -3.6607 H         1 RES1    0.0000
     19 H11       12.0296    0.3376   -2.5291 H         1 RES1    0.0000
     20 C6        11.4842    1.6324    1.9650 C.3       1 RES1    0.0000
     21 C7        11.6896    1.0287    3.3659 C.3       1 RES1    0.0000
     22 H12       10.9750    0.3641    3.5344 H         1 RES1    0.0000
     23 H13       12.5565    0.5488    3.3816 H         1 RES1    0.0000
     24 C8        11.6779    2.0496    4.4883 C.3       1 RES1    0.0000
     25 H14       10.7851    2.4728    4.5509 H         1 RES1    0.0000
     26 H15       11.8715    1.6044    5.3506 H         1 RES1    0.0000
     27 C9        12.7306    3.1035    4.2020 C.3       1 RES1    0.0000
     28 H16       13.6253    2.6779    4.2133 H         1 RES1    0.0000
     29 H17       12.7103    3.7833    4.9225 H         1 RES1    0.0000
     30 C10       12.5282    3.8015    2.8501 C.3       1 RES1    0.0000
     31 C11       11.7740    0.5360    0.9432 C.3       1 RES1    0.0000
     32 H18       11.5451    0.8568    0.0453 H         1 RES1    0.0000
     33 H19       11.2362   -0.2565    1.1542 H         1 RES1    0.0000
     34 H20       12.7263    0.3040    0.9751 H         1 RES1    0.0000
     35 C12       10.0215    2.0747    1.7676 C.3       1 RES1    0.0000
     36 H21        9.7185    2.5672    2.5593 H         1 RES1    0.0000
     37 H22        9.4566    1.2847    1.6389 H         1 RES1    0.0000
     38 H23        9.9587    2.6537    0.9788 H         1 RES1    0.0000
     39 C13       13.7562    4.6758    2.5936 C.3       1 RES1    0.0000
     40 H24       14.5455    4.1060    2.4857 H         1 RES1    0.0000
     41 H25       13.8912    5.2801    3.3533 H         1 RES1    0.0000
     42 H26       13.6194    5.2014    1.7785 H         1 RES1    0.0000
     43 C14       11.2993    4.7239    2.8737 C.3       1 RES1    0.0000
     44 H27       11.0479    4.9558    1.9558 H         1 RES1    0.0000
     45 H28       11.5135    5.5413    3.3703 H         1 RES1    0.0000
     46 H29       10.5529    4.2627    3.3099 H         1 RES1    0.0000
@<TRIPOS>BOND
     1    1    2 1
     2    3    4 1
     3    4   20 1
     4    5    6 1
     5    7    5 1
     6    8    5 1
     7    9    3 1
     8   10    9 1
     9   11    1 1
    10   12   11 1
    11   13   11 1
    12   14   13 1
    13   15   13 1
    14   16   13 1
    15   17   16 1
    16   18   16 1
    17   19   16 1
    18   20   21 1
    19   21   22 1
    20   23   21 1
    21   24   21 1
    22   25   24 1
    23   26   24 1
    24   27   24 1
    25   28   27 1
    26   29   27 1
    27   30    4 1
    28   31   20 1
    29   32   31 1
    30   33   31 1
    31   34   31 1
    32   35   20 1
    33   36   35 1
    34   37   35 1
    35   38   35 1
    36   39   30 1
    37   40   39 1
    38   41   39 1
    39   42   39 1
    40   43   30 1
    41   44   43 1
    42   45   43 1
    43   46   43 1
    44    5    9 1
    45    9   11 1
    46   27   30 1
@<TRIPOS>SUBSTRUCTURE
     1 RES1 1

@<TRIPOS>CRYSIN
  19.6669    7.7958   18.9890  90.0000  96.6820  90.0000  15 1

