# MOL2 file generated by ConQuest
# Please check atom types

@<TRIPOS>MOLECULE
YUXCIE
    23    24     1
SMALL
NO_CHARGES
****
Generated from CSD

@<TRIPOS>ATOM
      1 N1         4.3076    5.8200   -2.0759 N.3       1 RES1    0.0000
      2 O1         0.8513    5.6853   -1.1741 O.3       1 RES1    0.0000
      3 C1         1.8990    6.2700   -1.7908 C.2       1 RES1    0.0000
      4 O2         1.8837    7.4164   -2.1118 O.2       1 RES1    0.0000
      5 C2         2.9762    5.2080   -1.9965 C.3       1 RES1    0.0000
      6 O3         3.2546    4.8822    0.3453 O.3       1 RES1    0.0000
      7 H1         3.3684    4.2640    0.8293 H         1 RES1    0.0000
      8 C3         2.7144    4.2832   -0.8107 C.3       1 RES1    0.0000
      9 H2         3.0571    3.3771   -0.9590 H         1 RES1    0.0000
     10 O4         4.3589    6.2818   -3.4435 O.3       1 RES1    0.0000
     11 C4         1.1932    4.3329   -0.7735 C.3       1 RES1    0.0000
     12 H3         0.8134    3.6855   -1.3876 H         1 RES1    0.0000
     13 H4         0.8652    4.1461    0.1199 H         1 RES1    0.0000
     14 C5         3.6900    5.3030   -4.2696 C.3       1 RES1    0.0000
     15 H5         4.3372    4.7047   -4.6744 H         1 RES1    0.0000
     16 H6         3.1910    5.7424   -4.9758 H         1 RES1    0.0000
     17 C6         2.7576    4.5340   -3.3714 C.3       1 RES1    0.0000
     18 H7         2.9941    3.5937   -3.3434 H         1 RES1    0.0000
     19 H8         1.8365    4.6221   -3.6637 H         1 RES1    0.0000
     20 C7         5.3945    4.8412   -1.8885 C.3       1 RES1    0.0000
     21 H9         6.2368    5.2552   -2.0905 H         1 RES1    0.0000
     22 H10        5.2568    4.0939   -2.4747 H         1 RES1    0.0000
     23 H11        5.3975    4.5371   -0.9779 H         1 RES1    0.0000
@<TRIPOS>BOND
     1    1    5 1
     2    2    3 1
     3    3    4 2
     4    5    3 1
     5    6    7 1
     6    8    5 1
     7    9    8 1
     8   10    1 1
     9   11    2 1
    10   12   11 1
    11   13   11 1
    12   14   10 1
    13   15   14 1
    14   16   14 1
    15   17    5 1
    16   18   17 1
    17   19   17 1
    18   20    1 1
    19   21   20 1
    20   22   20 1
    21   23   20 1
    22    6    8 1
    23    8   11 1
    24   14   17 1
@<TRIPOS>SUBSTRUCTURE
     1 RES1 1

@<TRIPOS>CRYSIN
   8.0372    6.2067    8.6679  90.0000 108.6900  90.0000   4 1

