# MOL2 file generated by ConQuest
# Please check atom types

@<TRIPOS>MOLECULE
YUXHAB
    42    44     1
SMALL
NO_CHARGES
****
Generated from CSD

@<TRIPOS>ATOM
      1 O1         0.4558    8.9278    0.2366 O.3       1 RES1    0.0000
      2 N1         1.1069    9.2395   -0.9923 N.2       1 RES1    0.0000
      3 C1        -1.7506    8.5014    1.1476 C.3       1 RES1    0.0000
      4 H1        -1.7614    9.2415    1.7891 H         1 RES1    0.0000
      5 H2        -1.4074    7.6944    1.5862 H         1 RES1    0.0000
      6 H3        -2.6610    8.3348    0.8256 H         1 RES1    0.0000
      7 C2        -0.8735    8.8521   -0.0025 C.2       1 RES1    0.0000
      8 C3        -1.1193    9.1060   -1.3020 C.2       1 RES1    0.0000
      9 C4         0.1596    9.3269   -1.8581 C.2       1 RES1    0.0000
     10 C5         0.4979    9.6187   -3.2776 C.3       1 RES1    0.0000
     11 H4         1.4453    9.8592   -3.3450 H         1 RES1    0.0000
     12 H5        -0.0527   10.3630   -3.5988 H         1 RES1    0.0000
     13 H6         0.3233    8.8245   -3.8247 H         1 RES1    0.0000
     14 C6        -2.4167    9.1588   -2.0364 C.3       1 RES1    0.0000
     15 H7        -2.5080   10.0528   -2.4537 H         1 RES1    0.0000
     16 H8        -3.1543    9.0550   -1.3850 H         1 RES1    0.0000
     17 C7        -2.5696    8.0997   -3.1174 C.ar      1 RES1    0.0000
     18 C8        -2.2506    6.7785   -2.8710 C.ar      1 RES1    0.0000
     19 H9        -1.9155    6.5287   -2.0175 H         1 RES1    0.0000
     20 C9        -3.0390    8.4231   -4.3619 C.ar      1 RES1    0.0000
     21 H10       -3.2581    9.3269   -4.5574 H         1 RES1    0.0000
     22 O1B       -5.9076    5.3052   -8.4512 O.3       1 RES1    0.0000
     23 N1B       -6.5587    4.9935   -7.2223 N.2       1 RES1    0.0000
     24 C1B       -3.7012    5.7316   -9.3622 C.3       1 RES1    0.0000
     25 H1B       -3.6904    4.9915  -10.0037 H         1 RES1    0.0000
     26 H2B       -4.0444    6.5386   -9.8008 H         1 RES1    0.0000
     27 H3B       -2.7908    5.8982   -9.0401 H         1 RES1    0.0000
     28 C2B       -4.5783    5.3809   -8.2121 C.2       1 RES1    0.0000
     29 C3B       -4.3325    5.1270   -6.9126 C.2       1 RES1    0.0000
     30 C4B       -5.6114    4.9061   -6.3564 C.2       1 RES1    0.0000
     31 C5B       -5.9497    4.6143   -4.9370 C.3       1 RES1    0.0000
     32 H4B       -6.8971    4.3738   -4.8696 H         1 RES1    0.0000
     33 H5B       -5.3991    3.8700   -4.6158 H         1 RES1    0.0000
     34 H6B       -5.7751    5.4085   -4.3899 H         1 RES1    0.0000
     35 C6B       -3.0351    5.0742   -6.1782 C.3       1 RES1    0.0000
     36 H7B       -2.9438    4.1802   -5.7609 H         1 RES1    0.0000
     37 H8B       -2.2975    5.1780   -6.8296 H         1 RES1    0.0000
     38 C7B       -2.8822    6.1333   -5.0971 C.ar      1 RES1    0.0000
     39 C8B       -3.2012    7.4545   -5.3436 C.ar      1 RES1    0.0000
     40 H9B       -3.5363    7.7043   -6.1971 H         1 RES1    0.0000
     41 C9B       -2.4128    5.8099   -3.8526 C.ar      1 RES1    0.0000
     42 H10B      -2.1937    4.9061   -3.6571 H         1 RES1    0.0000
@<TRIPOS>BOND
     1    1    2 1
     2    2    9 2
     3    3    4 1
     4    5    3 1
     5    6    3 1
     6    7    1 1
     7    8    7 2
     8    9    8 1
     9   10    9 1
    10   11   10 1
    11   12   10 1
    12   13   10 1
    13   14    8 1
    14   15   14 1
    15   16   14 1
    16   17   14 1
    17   18   17 ar
    18   19   18 1
    19   20   17 ar
    20   21   20 1
    21   22   23 1
    22   23   30 2
    23   24   25 1
    24   26   24 1
    25   27   24 1
    26   28   22 1
    27   29   28 2
    28   30   29 1
    29   31   30 1
    30   32   31 1
    31   33   31 1
    32   34   31 1
    33   35   29 1
    34   36   35 1
    35   37   35 1
    36   38   35 1
    37   39   20 ar
    38   40   39 1
    39   41   18 ar
    40   42   41 1
    41    3    7 1
    42   24   28 1
    43   38   39 ar
    44   38   41 ar
@<TRIPOS>SUBSTRUCTURE
     1 RES1 1

@<TRIPOS>CRYSIN
   7.0310   14.2330    8.3650  90.0000 100.8820  90.0000 231 1

