# MOL2 file generated by ConQuest
# Please check atom types

@<TRIPOS>MOLECULE
YUXMOU
    78    81     1
SMALL
NO_CHARGES
****
Generated from CSD

@<TRIPOS>ATOM
      1 O1         0.2072   -6.7945   11.0489 O.2       1 RES1    0.0000
      2 O2        -0.6311   -5.4284   12.4019 O.2       1 RES1    0.0000
      3 O3         0.7421   -3.0866   12.1956 O.3       1 RES1    0.0000
      4 O4         4.6069   -1.7042   13.0349 O.2       1 RES1    0.0000
      5 O5         0.5295    0.2375   11.2802 O.3       1 RES1    0.0000
      6 O6         0.1317    4.2255   11.3362 O.2       1 RES1    0.0000
      7 O7        -1.5489    0.4586    8.9617 O.3       1 RES1    0.0000
      8 O8        -5.7377    0.7822    8.4355 O.2       1 RES1    0.0000
      9 O9        -2.2860   -2.5915    8.7521 O.3       1 RES1    0.0000
     10 O10       -1.8907   -5.3211    8.6816 O.2       1 RES1    0.0000
     11 O11       -3.7162   -6.5866    8.5717 O.3       1 RES1    0.0000
     12 N1         0.3128   -5.8729   11.8132 N.pl3     1 RES1    0.0000
     13 N2         2.6203   -1.0814   12.1469 N.am      1 RES1    0.0000
     14 H1         1.9116   -1.3756   11.8624 H         1 RES1    0.0000
     15 N3        -0.1432    2.5517    9.8244 N.am      1 RES1    0.0000
     16 H2         0.1211    1.6841    9.6852 H         1 RES1    0.0000
     17 N4        -3.9683   -0.6096    8.7361 N.am      1 RES1    0.0000
     18 H3        -3.1019   -0.6238    8.8313 H         1 RES1    0.0000
     19 C1         1.8276   -3.9317   12.2335 C.ar      1 RES1    0.0000
     20 C2         1.6558   -5.3022   12.0198 C.ar      1 RES1    0.0000
     21 C3         2.7134   -6.1773   11.9654 C.ar      1 RES1    0.0000
     22 H4         2.5676   -7.0910   11.7997 H         1 RES1    0.0000
     23 C4         3.9943   -5.6977   12.1569 C.ar      1 RES1    0.0000
     24 H5         4.7296   -6.2827   12.1257 H         1 RES1    0.0000
     25 C5         4.1838   -4.3574   12.3930 C.ar      1 RES1    0.0000
     26 H6         5.0551   -4.0411   12.5519 H         1 RES1    0.0000
     27 C6         3.1199   -3.4493   12.4036 C.ar      1 RES1    0.0000
     28 C7         0.1573   -2.8113   13.4933 C.3       1 RES1    0.0000
     29 H7        -0.0523   -3.6482   13.9379 H         1 RES1    0.0000
     30 H8        -0.6552   -2.2931   13.3779 H         1 RES1    0.0000
     31 H9         0.7874   -2.3081   14.0326 H         1 RES1    0.0000
     32 C8         3.5131   -1.9960   12.5806 C.2       1 RES1    0.0000
     33 C9         1.6378    1.0047   11.5938 C.ar      1 RES1    0.0000
     34 C10        2.7546    0.3227   12.0661 C.ar      1 RES1    0.0000
     35 C11        3.8902    1.0385   12.4072 C.ar      1 RES1    0.0000
     36 H10        4.6510    0.5910   12.7288 H         1 RES1    0.0000
     37 C12        3.8999    2.4162   12.2717 C.ar      1 RES1    0.0000
     38 H11        4.6685    2.9004   12.5143 H         1 RES1    0.0000
     39 C13        2.7965    3.0867   11.7855 C.ar      1 RES1    0.0000
     40 H12        2.8209    4.0230   11.6966 H         1 RES1    0.0000
     41 C14        1.6486    2.3893   11.4252 C.ar      1 RES1    0.0000
     42 C15       -0.5658    0.4164   12.1925 C.3       1 RES1    0.0000
     43 H13       -0.2690    0.2213   13.0966 H         1 RES1    0.0000
     44 H14       -1.2874   -0.1861   11.9530 H         1 RES1    0.0000
     45 H15       -0.8800    1.3324   12.1466 H         1 RES1    0.0000
     46 C16        0.4738    3.1515   10.8781 C.2       1 RES1    0.0000
     47 C17       -2.2178    1.6757    8.9950 C.ar      1 RES1    0.0000
     48 C18       -1.4641    2.7957    9.3868 C.ar      1 RES1    0.0000
     49 C19       -2.0525    4.0568    9.3290 C.ar      1 RES1    0.0000
     50 H16       -1.5580    4.8224    9.5585 H         1 RES1    0.0000
     51 C20       -3.3748    4.1713    8.9305 C.ar      1 RES1    0.0000
     52 H17       -3.7586    5.0242    8.8397 H         1 RES1    0.0000
     53 C21       -4.1375    3.0496    8.6646 C.ar      1 RES1    0.0000
     54 H18       -5.0453    3.1491    8.4413 H         1 RES1    0.0000
     55 C22       -3.5825    1.7747    8.7216 C.ar      1 RES1    0.0000
     56 C23       -0.9004    0.2118    7.6849 C.3       1 RES1    0.0000
     57 H19       -1.5282    0.3814    6.9648 H         1 RES1    0.0000
     58 H20       -0.6040   -0.7115    7.6459 H         1 RES1    0.0000
     59 H21       -0.1355    0.8012    7.5916 H         1 RES1    0.0000
     60 C24       -4.5342    0.6040    8.5969 C.2       1 RES1    0.0000
     61 C25       -3.6115   -2.9501    8.7510 C.ar      1 RES1    0.0000
     62 C26       -4.5358   -1.8954    8.7161 C.ar      1 RES1    0.0000
     63 C27       -5.8956   -2.1597    8.6785 C.ar      1 RES1    0.0000
     64 H22       -6.5161   -1.4542    8.6628 H         1 RES1    0.0000
     65 C28       -6.3336   -3.4767    8.6645 C.ar      1 RES1    0.0000
     66 H23       -7.2549   -3.6607    8.6391 H         1 RES1    0.0000
     67 C29       -5.4290   -4.5171    8.6870 C.ar      1 RES1    0.0000
     68 H24       -5.7417   -5.4038    8.6767 H         1 RES1    0.0000
     69 C30       -4.0523   -4.2716    8.7249 C.ar      1 RES1    0.0000
     70 C31       -1.6536   -2.6595   10.0378 C.3       1 RES1    0.0000
     71 H25       -2.2158   -2.2237   10.6979 H         1 RES1    0.0000
     72 H26       -0.7941   -2.2116   10.0000 H         1 RES1    0.0000
     73 H27       -1.5233   -3.5887   10.2856 H         1 RES1    0.0000
     74 C32       -3.0857   -5.4095    8.6649 C.2       1 RES1    0.0000
     75 C33       -2.8488   -7.7267    8.4371 C.3       1 RES1    0.0000
     76 H28       -2.3068   -7.6289    7.6390 H         1 RES1    0.0000
     77 H29       -3.3838   -8.5337    8.3675 H         1 RES1    0.0000
     78 H30       -2.2719   -7.7872    9.2144 H         1 RES1    0.0000
@<TRIPOS>BOND
     1    1   12 2
     2    2   12 2
     3    3   19 1
     4    4   32 2
     5    5   33 1
     6    6   46 2
     7    7   47 1
     8    8   60 2
     9    9   61 1
    10   10   74 2
    11   11   74 1
    12   12   20 1
    13   13   14 1
    14   15   16 1
    15   17   18 1
    16   19   20 ar
    17   20   21 ar
    18   21   22 1
    19   23   21 ar
    20   24   23 1
    21   25   23 ar
    22   26   25 1
    23   27   19 ar
    24   28    3 1
    25   29   28 1
    26   30   28 1
    27   31   28 1
    28   32   13 1
    29   33   34 ar
    30   34   13 1
    31   35   34 ar
    32   36   35 1
    33   37   35 ar
    34   38   37 1
    35   39   37 ar
    36   40   39 1
    37   41   33 ar
    38   42    5 1
    39   43   42 1
    40   44   42 1
    41   45   42 1
    42   46   15 1
    43   47   48 ar
    44   48   15 1
    45   49   48 ar
    46   50   49 1
    47   51   49 ar
    48   52   51 1
    49   53   51 ar
    50   54   53 1
    51   55   47 ar
    52   56    7 1
    53   57   56 1
    54   58   56 1
    55   59   56 1
    56   60   17 1
    57   61   62 ar
    58   62   17 1
    59   63   62 ar
    60   64   63 1
    61   65   63 ar
    62   66   65 1
    63   67   65 ar
    64   68   67 1
    65   69   61 ar
    66   70    9 1
    67   71   70 1
    68   72   70 1
    69   73   70 1
    70   74   69 1
    71   75   11 1
    72   76   75 1
    73   77   75 1
    74   78   75 1
    75   25   27 ar
    76   27   32 1
    77   39   41 ar
    78   41   46 1
    79   53   55 ar
    80   55   60 1
    81   67   69 ar
@<TRIPOS>SUBSTRUCTURE
     1 RES1 1

@<TRIPOS>CRYSIN
   8.0316   13.8306   15.0009 109.2790  93.8520 106.7440   2 1

