# MOL2 file generated by ConQuest
# Please check atom types

@<TRIPOS>MOLECULE
YUXMUA
    70    68     2
SMALL
NO_CHARGES
****
Generated from CSD

@<TRIPOS>ATOM
      1 N1         5.6714    5.0461    1.8204 N.pl3     1 RES1    0.0000
      2 O1         5.6812    3.8245    1.8998 O.2       1 RES1    0.0000
      3 O2         5.6361    5.6231    0.7360 O.2       1 RES1    0.0000
      4 O3         2.1914    2.7925    6.7030 O.3       1 RES1    0.0000
      5 O4         4.3941    7.0411    7.4662 O.2       1 RES1    0.0000
      6 O5         0.0375    1.5647   10.1319 O.3       1 RES1    0.0000
      7 O6         0.3726    1.0929    7.9920 O.2       1 RES1    0.0000
      8 O7         4.3431    4.2613    4.3038 O.3       1 RES1    0.0000
      9 O8         7.0630    9.0918    4.1002 O.3       1 RES1    0.0000
     10 N2         3.3414    5.1946    6.6790 N.am      1 RES1    0.0000
     11 H1         3.2996    4.6377    6.0159 H         1 RES1    0.0000
     12 C1         1.9319    3.6004    7.7790 C.ar      1 RES1    0.0000
     13 C2         1.1654    3.1833    8.8803 C.ar      1 RES1    0.0000
     14 C3         1.0377    4.0351    9.9757 C.ar      1 RES1    0.0000
     15 H2         0.5400    3.7630   10.7128 H         1 RES1    0.0000
     16 C4         1.6378    5.2740    9.9826 C.ar      1 RES1    0.0000
     17 H3         1.5296    5.8346   10.7163 H         1 RES1    0.0000
     18 C5         2.3989    5.6913    8.9085 C.ar      1 RES1    0.0000
     19 H4         2.8013    6.5302    8.9208 H         1 RES1    0.0000
     20 C6         2.5642    4.8543    7.8054 C.ar      1 RES1    0.0000
     21 C7         1.1794    2.7778    5.6760 C.3       1 RES1    0.0000
     22 H5         0.3142    2.6830    6.0811 H         1 RES1    0.0000
     23 H6         1.3366    2.0405    5.0820 H         1 RES1    0.0000
     24 H7         1.2129    3.5997    5.1816 H         1 RES1    0.0000
     25 C8         0.5051    1.8463    8.9088 C.2       1 RES1    0.0000
     26 C9        -0.6363    0.2986   10.2775 C.3       1 RES1    0.0000
     27 H8        -1.4538    0.3112    9.7741 H         1 RES1    0.0000
     28 H9        -0.8339    0.1456   11.2046 H         1 RES1    0.0000
     29 H10       -0.0699   -0.4046    9.9507 H         1 RES1    0.0000
     30 C10        4.2088    6.2312    6.5803 C.2       1 RES1    0.0000
     31 C11        5.0179    5.4586    4.2189 C.ar      1 RES1    0.0000
     32 C12        4.9674    6.3844    5.2760 C.ar      1 RES1    0.0000
     33 C13        5.6667    7.5737    5.1720 C.ar      1 RES1    0.0000
     34 H11        5.6393    8.1746    5.8808 H         1 RES1    0.0000
     35 C14        6.4062    7.8988    4.0459 C.ar      1 RES1    0.0000
     36 C15        6.4381    7.0230    2.9828 C.ar      1 RES1    0.0000
     37 H12        6.9165    7.2297    2.2127 H         1 RES1    0.0000
     38 C16        5.7426    5.8277    3.0860 C.ar      1 RES1    0.0000
     39 C17        5.1763    3.1540    4.7101 C.3       1 RES1    0.0000
     40 H13        5.8630    3.0124    4.0545 H         1 RES1    0.0000
     41 H14        4.6396    2.3622    4.7881 H         1 RES1    0.0000
     42 H15        5.5804    3.3518    5.5585 H         1 RES1    0.0000
     43 C18        7.7898    9.5312    2.9346 C.3       1 RES1    0.0000
     44 H16        7.1937    9.6092    2.1736 H         1 RES1    0.0000
     45 H17        8.4920    8.8991    2.7152 H         1 RES1    0.0000
     46 C19        8.3780   10.8706    3.2810 C.3       1 RES1    0.0000
     47 H18        8.9927   10.7596    4.0225 H         1 RES1    0.0000
     48 H19        7.6656   11.4599    3.5745 H         1 RES1    0.0000
     49 C20        9.1162   11.5306    2.1238 C.3       1 RES1    0.0000
     50 H20        9.8204   10.9393    1.8145 H         1 RES1    0.0000
     51 H21        8.4993   11.6692    1.3890 H         1 RES1    0.0000
     52 C21        9.7222   12.8638    2.5283 C.3       1 RES1    0.0000
     53 H22       10.3827   12.7069    3.2213 H         1 RES1    0.0000
     54 H23        9.0238   13.4198    2.9084 H         1 RES1    0.0000
     55 C22       10.3829   13.6224    1.3877 C.3       1 RES1    0.0000
     56 H24        9.7229   13.7949    0.6993 H         1 RES1    0.0000
     57 H25       11.0770   13.0670    0.9991 H         1 RES1    0.0000
     58 C23       10.9946   14.9432    1.8303 C.3       1 RES1    0.0000
     59 H26       10.3059   15.4762    2.2566 H         1 RES1    0.0000
     60 H27       11.6782   14.7622    2.4948 H         1 RES1    0.0000
     61 C24       11.6141   15.7578    0.7047 C.3       1 RES1    0.0000
     62 H28       12.3057   15.2316    0.2726 H         1 RES1    0.0000
     63 H29       10.9339   15.9576    0.0427 H         1 RES1    0.0000
     64 C25       12.2182   17.0591    1.2092 C.3       1 RES1    0.0000
     65 H30       11.5375   17.5831    1.6379 H         1 RES1    0.0000
     66 H31       12.5822   17.5516    0.4693 H         1 RES1    0.0000
     67 H32       12.9172   16.8654    1.8382 H         1 RES1    0.0000
     68 N3         5.8946    4.8911    1.9662 Du        2 SUP2    0.0000
     69 O9         5.0246    4.0909    1.7422 Du        2 SUP2    0.0000
     70 O10        6.8619    5.0528    1.2598 Du        2 SUP2    0.0000
@<TRIPOS>BOND
     1    1    2 2
     2    3    1 2
     3    4   12 1
     4    5   30 2
     5    6   25 1
     6    7   25 2
     7    8   31 1
     8    9   35 1
     9   10   11 1
    10   12   13 ar
    11   13   14 ar
    12   14   15 1
    13   16   14 ar
    14   17   16 1
    15   18   16 ar
    16   19   18 1
    17   20   10 1
    18   21    4 1
    19   22   21 1
    20   23   21 1
    21   24   21 1
    22   25   13 1
    23   26    6 1
    24   27   26 1
    25   28   26 1
    26   29   26 1
    27   30   10 1
    28   31   32 ar
    29   32   30 1
    30   33   32 ar
    31   34   33 1
    32   35   33 ar
    33   36   35 ar
    34   37   36 1
    35   38    1 1
    36   39    8 1
    37   40   39 1
    38   41   39 1
    39   42   39 1
    40   43    9 1
    41   44   43 1
    42   45   43 1
    43   46   43 1
    44   47   46 1
    45   48   46 1
    46   49   46 1
    47   50   49 1
    48   51   49 1
    49   52   49 1
    50   53   52 1
    51   54   52 1
    52   55   52 1
    53   56   55 1
    54   57   55 1
    55   58   55 1
    56   59   58 1
    57   60   58 1
    58   61   58 1
    59   62   61 1
    60   63   61 1
    61   64   61 1
    62   65   64 1
    63   66   64 1
    64   67   64 1
    65   12   20 ar
    66   18   20 ar
    67   31   38 ar
    68   36   38 ar
@<TRIPOS>SUBSTRUCTURE
     1 RES1 1
     2 SUP2 68

@<TRIPOS>CRYSIN
   8.6807   12.2715   12.4359  80.7490  73.9240  81.8480   2 1

