# MOL2 file generated by ConQuest
# Please check atom types

@<TRIPOS>MOLECULE
YUXMIO
    60    62     1
SMALL
NO_CHARGES
****
Generated from CSD

@<TRIPOS>ATOM
      1 O1         5.2011   -1.5351   -0.9796 O.2       1 RES1    0.0000
      2 O2         5.4257    2.6364   -1.2353 O.3       1 RES1    0.0000
      3 O3         4.8219    4.5566   -3.2055 O.2       1 RES1    0.0000
      4 O4         6.4741    4.3070   -4.5709 O.2       1 RES1    0.0000
      5 O5         5.6502    2.2272    2.0367 O.3       1 RES1    0.0000
      6 O6         5.0059    1.5308    6.0135 O.2       1 RES1    0.0000
      7 O7         8.7107    3.6991    3.7802 O.3       1 RES1    0.0000
      8 O8        10.8018    6.4659    6.1921 O.3       1 RES1    0.0000
      9 O9        10.7398    5.5083    4.2287 O.2       1 RES1    0.0000
     10 N1         5.2130    0.4089    0.1794 N.am      1 RES1    0.0000
     11 N2         6.5449    2.5279    4.6742 N.am      1 RES1    0.0000
     12 N3         5.6308    3.8622   -3.8050 N.pl3     1 RES1    0.0000
     13 C1         5.2373   -0.3175   -0.9582 C.2       1 RES1    0.0000
     14 C2         5.3168    0.4647   -2.2490 C.ar      1 RES1    0.0000
     15 C3         5.4538    1.8570   -2.3602 C.ar      1 RES1    0.0000
     16 C4         5.5581    2.4082   -3.6368 C.ar      1 RES1    0.0000
     17 C5         5.5577    1.6424   -4.7854 C.ar      1 RES1    0.0000
     18 H1         5.6758    2.0421   -5.6285 H         1 RES1    0.0000
     19 C6         5.3801    0.2813   -4.6712 C.ar      1 RES1    0.0000
     20 H2         5.3469   -0.2577   -5.4406 H         1 RES1    0.0000
     21 C7         5.2518   -0.2882   -3.4222 C.ar      1 RES1    0.0000
     22 H3         5.1157   -1.2168   -3.3587 H         1 RES1    0.0000
     23 C8         6.5119    3.5536   -0.9886 C.3       1 RES1    0.0000
     24 H4         7.0931    3.5836   -1.7647 H         1 RES1    0.0000
     25 H5         7.0175    3.2565   -0.2159 H         1 RES1    0.0000
     26 H6         6.1545    4.4386   -0.8184 H         1 RES1    0.0000
     27 C9         5.1685   -0.0377    1.5062 C.ar      1 RES1    0.0000
     28 C10        5.3672    0.9497    2.4852 C.ar      1 RES1    0.0000
     29 C11        5.3221    0.6297    3.8384 C.ar      1 RES1    0.0000
     30 C12        5.0732   -0.6900    4.2103 C.ar      1 RES1    0.0000
     31 H7         5.0337   -0.9194    5.1207 H         1 RES1    0.0000
     32 C13        4.8839   -1.6610    3.2537 C.ar      1 RES1    0.0000
     33 H8         4.7245   -2.5477    3.5200 H         1 RES1    0.0000
     34 C14        4.9254   -1.3499    1.9041 C.ar      1 RES1    0.0000
     35 H9         4.7892   -2.0223    1.2609 H         1 RES1    0.0000
     36 C15        4.5616    3.1616    2.1952 C.3       1 RES1    0.0000
     37 H10        3.8036    2.8674    1.6660 H         1 RES1    0.0000
     38 H11        4.8430    4.0396    1.8966 H         1 RES1    0.0000
     39 H12        4.3059    3.2044    3.1295 H         1 RES1    0.0000
     40 C16        5.5803    1.6166    4.9516 C.2       1 RES1    0.0000
     41 C17        7.1411    3.4701    5.5298 C.ar      1 RES1    0.0000
     42 C18        8.2984    4.0971    5.0276 C.ar      1 RES1    0.0000
     43 C19        9.0018    5.0181    5.8079 C.ar      1 RES1    0.0000
     44 C20        8.5057    5.3303    7.0785 C.ar      1 RES1    0.0000
     45 H13        8.9664    5.9479    7.6171 H         1 RES1    0.0000
     46 C21        7.3544    4.7450    7.5476 C.ar      1 RES1    0.0000
     47 H14        7.0271    4.9839    8.3955 H         1 RES1    0.0000
     48 C22        6.6646    3.8057    6.7896 C.ar      1 RES1    0.0000
     49 H15        5.8849    3.4027    7.1266 H         1 RES1    0.0000
     50 C23        8.3259    4.5633    2.7054 C.3       1 RES1    0.0000
     51 H16        7.4081    4.8500    2.8336 H         1 RES1    0.0000
     52 H17        8.4007    4.0867    1.8646 H         1 RES1    0.0000
     53 H18        8.9081    5.3383    2.6897 H         1 RES1    0.0000
     54 C24       10.2696    5.6391    5.3135 C.2       1 RES1    0.0000
     55 C25       12.0382    7.0964    5.7977 C.3       1 RES1    0.0000
     56 H19       12.7169    6.4188    5.6565 H         1 RES1    0.0000
     57 H20       12.3284    7.7050    6.4962 H         1 RES1    0.0000
     58 H21       11.9005    7.5910    4.9755 H         1 RES1    0.0000
     59 H22        6.8799    2.5155    3.8732 H         1 RES1    0.0000
     60 H23        5.2740    1.2392    0.1066 H         1 RES1    0.0000
@<TRIPOS>BOND
     1    1   13 2
     2    2   15 1
     3    3   12 2
     4    4   12 2
     5    5   28 1
     6    6   40 2
     7    7   42 1
     8    8   54 1
     9    9   54 2
    10   10   13 1
    11   11   40 1
    12   12   16 1
    13   13   14 1
    14   14   15 ar
    15   15   16 ar
    16   16   17 ar
    17   17   18 1
    18   19   17 ar
    19   20   19 1
    20   21   14 ar
    21   22   21 1
    22   23    2 1
    23   24   23 1
    24   25   23 1
    25   26   23 1
    26   27   10 1
    27   28   27 ar
    28   29   28 ar
    29   30   29 ar
    30   31   30 1
    31   32   30 ar
    32   33   32 1
    33   34   27 ar
    34   35   34 1
    35   36    5 1
    36   37   36 1
    37   38   36 1
    38   39   36 1
    39   40   29 1
    40   41   11 1
    41   42   41 ar
    42   43   42 ar
    43   44   43 ar
    44   45   44 1
    45   46   44 ar
    46   47   46 1
    47   48   41 ar
    48   49   48 1
    49   50    7 1
    50   51   50 1
    51   52   50 1
    52   53   50 1
    53   54   43 1
    54   55    8 1
    55   56   55 1
    56   57   55 1
    57   58   55 1
    58   59   11 1
    59   60   10 1
    60   19   21 ar
    61   32   34 ar
    62   46   48 ar
@<TRIPOS>SUBSTRUCTURE
     1 RES1 1

@<TRIPOS>CRYSIN
   7.0390   24.7830   13.5449  90.0000 100.2600  90.0000 231 1

