# MOL2 file generated by ConQuest
# Please check atom types

@<TRIPOS>MOLECULE
YUYCOK
    15    15     1
SMALL
NO_CHARGES
****
Generated from CSD

@<TRIPOS>ATOM
      1 O1         5.0418    2.2424    2.8896 O.3       1 RES1    0.0000
      2 O2         5.5475   -0.2716    0.5734 O.2       1 RES1    0.0000
      3 O3         6.8658    0.5440    2.0879 O.2       1 RES1    0.0000
      4 O4         4.6535    5.3041    5.6389 O.3       1 RES1    0.0000
      5 N1         5.7980    0.5088    1.4898 N.pl3     1 RES1    0.0000
      6 N2         4.8954    4.2739    4.7492 N.2       1 RES1    0.0000
      7 C1         3.8637    2.8893    3.1319 C.2       1 RES1    0.0000
      8 C2         2.8987    2.4463    2.2851 C.2       1 RES1    0.0000
      9 C3         3.4821    1.4657    1.4802 C.2       1 RES1    0.0000
     10 C4         4.7658    1.3897    1.8832 C.2       1 RES1    0.0000
     11 C5         3.8397    3.9278    4.1308 C.2       1 RES1    0.0000
     12 H1         2.0033    2.7554    2.2369 H         1 RES1    0.0000
     13 H2         3.0524    0.9819    0.8596 H         1 RES1    0.0000
     14 H3         3.0927    4.3634    4.3044 H         1 RES1    0.0000
     15 H4         5.4617    5.7420    5.9282 H         1 RES1    0.0000
@<TRIPOS>BOND
     1    1    7 1
     2    2    5 2
     3    3    5 2
     4    4    6 1
     5    5   10 1
     6    6   11 2
     7    7    8 2
     8    8    9 1
     9    9   10 2
    10   10    1 1
    11   11    7 1
    12   12    8 1
    13   13    9 1
    14   14   11 1
    15   15    4 1
@<TRIPOS>SUBSTRUCTURE
     1 RES1 1

@<TRIPOS>CRYSIN
   6.4660    4.6340   10.7550  90.0000  94.7400  90.0000   4 1

