# MOL2 file generated by ConQuest
# Please check atom types

@<TRIPOS>MOLECULE
YUYFIH
    32    34     1
SMALL
NO_CHARGES
****
Generated from CSD

@<TRIPOS>ATOM
      1 C1         0.6772    1.3775    5.4845 C.3       1 RES1    0.0000
      2 H1         0.9932    0.5392    5.8818 H         1 RES1    0.0000
      3 O1        -0.0109    1.0906    4.2645 O.3       1 RES1    0.0000
      4 N1         1.0999    0.9432    3.3182 N.3       1 RES1    0.0000
      5 C2         0.5420    0.9045    1.9685 C.3       1 RES1    0.0000
      6 H2        -0.0124    1.6842    1.8097 H         1 RES1    0.0000
      7 H3         0.0000    0.1093    1.8502 H         1 RES1    0.0000
      8 C3         1.7230    0.8896    1.0104 C.3       1 RES1    0.0000
      9 H4         2.2227    0.0673    1.1329 H         1 RES1    0.0000
     10 H5         1.3934    0.9047    0.0981 H         1 RES1    0.0000
     11 C4         2.6461    2.0686    1.2246 C.3       1 RES1    0.0000
     12 H6         2.2021    2.8808    0.9347 H         1 RES1    0.0000
     13 H7         3.4431    1.9545    0.6832 H         1 RES1    0.0000
     14 C5         3.0471    2.2087    2.6890 C.3       1 RES1    0.0000
     15 H8         3.6179    1.4687    2.9490 H         1 RES1    0.0000
     16 H9         3.5386    3.0346    2.8211 H         1 RES1    0.0000
     17 C6         1.7930    2.2137    3.5305 C.3       1 RES1    0.0000
     18 H10        1.2136    2.9489    3.2403 H         1 RES1    0.0000
     19 C7         1.9044    2.2346    5.0492 C.3       1 RES1    0.0000
     20 H11        2.7265    1.7712    5.3142 H         1 RES1    0.0000
     21 C8         1.9324    3.6365    5.6039 C.2       1 RES1    0.0000
     22 O2         1.9751    4.6276    4.9250 O.2       1 RES1    0.0000
     23 O3         1.9440    3.7861    6.9406 O.3       1 RES1    0.0000
     24 C9         1.7737    2.6251    7.7909 C.3       1 RES1    0.0000
     25 H12        2.0660    2.8396    8.6904 H         1 RES1    0.0000
     26 H13        2.3279    1.9004    7.4616 H         1 RES1    0.0000
     27 C10        0.3390    2.1791    7.8261 C.3       1 RES1    0.0000
     28 H14       -0.1777    2.8178    8.3419 H         1 RES1    0.0000
     29 H15        0.2858    1.3219    8.2769 H         1 RES1    0.0000
     30 C11       -0.2766    2.0482    6.4352 C.3       1 RES1    0.0000
     31 H16       -1.0942    1.5296    6.4917 H         1 RES1    0.0000
     32 H17       -0.5023    2.9291    6.0984 H         1 RES1    0.0000
@<TRIPOS>BOND
     1    1    2 1
     2    3    1 1
     3    4    3 1
     4    5    4 1
     5    6    5 1
     6    7    5 1
     7    8    5 1
     8    9    8 1
     9   10    8 1
    10   11    8 1
    11   12   11 1
    12   13   11 1
    13   14   11 1
    14   15   14 1
    15   16   14 1
    16   17    4 1
    17   18   17 1
    18   19    1 1
    19   20   19 1
    20   21   19 1
    21   22   21 2
    22   23   21 1
    23   24   23 1
    24   25   24 1
    25   26   24 1
    26   27   24 1
    27   28   27 1
    28   29   27 1
    29   30    1 1
    30   31   30 1
    31   32   30 1
    32   14   17 1
    33   17   19 1
    34   27   30 1
@<TRIPOS>SUBSTRUCTURE
     1 RES1 1

@<TRIPOS>CRYSIN
   6.0456   16.7350   10.7860  90.0000  98.8400  90.0000 231 1

