# MOL2 file generated by ConQuest
# Please check atom types

@<TRIPOS>MOLECULE
YUYFED
    29    31     1
SMALL
NO_CHARGES
****
Generated from CSD

@<TRIPOS>ATOM
      1 C1         6.9118    3.7961   11.1951 C.3       1 RES1    0.0000
      2 H1         6.3787    4.6177   11.1791 H         1 RES1    0.0000
      3 O1         6.7149    3.1050   12.4527 O.3       1 RES1    0.0000
      4 N1         7.7243    3.7202   13.3101 N.3       1 RES1    0.0000
      5 C2         7.8136    2.9710   14.5544 C.3       1 RES1    0.0000
      6 H2         7.9813    2.0334   14.3729 H         1 RES1    0.0000
      7 H3         6.9862    3.0460   15.0549 H         1 RES1    0.0000
      8 C3         8.9582    3.5684   15.3368 C.3       1 RES1    0.0000
      9 H4         9.0631    3.0853   16.1712 H         1 RES1    0.0000
     10 H5         8.7526    4.4918   15.5502 H         1 RES1    0.0000
     11 C4        10.2598    3.5113   14.5565 C.3       1 RES1    0.0000
     12 H6        10.5284    2.5870   14.4393 H         1 RES1    0.0000
     13 H7        10.9573    3.9667   15.0538 H         1 RES1    0.0000
     14 C5        10.0907    4.1730   13.1895 C.3       1 RES1    0.0000
     15 H8         9.9405    5.1249   13.2994 H         1 RES1    0.0000
     16 H9        10.8950    4.0498   12.6614 H         1 RES1    0.0000
     17 C6         8.9156    3.5470   12.4876 C.3       1 RES1    0.0000
     18 H10        9.0861    2.5897   12.3646 H         1 RES1    0.0000
     19 C7         8.4238    4.1453   11.1673 C.3       1 RES1    0.0000
     20 H11        8.5212    5.1196   11.2089 H         1 RES1    0.0000
     21 C8         9.2153    3.6327    9.9987 C.2       1 RES1    0.0000
     22 O2        10.2368    4.1578    9.6346 O.2       1 RES1    0.0000
     23 O3         8.8046    2.5308    9.3659 O.3       1 RES1    0.0000
     24 C9         7.5592    1.8824    9.7725 C.3       1 RES1    0.0000
     25 H12        7.7195    1.3422   10.5622 H         1 RES1    0.0000
     26 H13        7.2548    1.2949    9.0635 H         1 RES1    0.0000
     27 C10        6.4978    2.8978   10.0696 C.3       1 RES1    0.0000
     28 H14        6.3307    3.4300    9.2765 H         1 RES1    0.0000
     29 H15        5.6738    2.4432   10.3057 H         1 RES1    0.0000
@<TRIPOS>BOND
     1    1    2 1
     2    3    1 1
     3    4    3 1
     4    5    4 1
     5    6    5 1
     6    7    5 1
     7    8    5 1
     8    9    8 1
     9   10    8 1
    10   11    8 1
    11   12   11 1
    12   13   11 1
    13   14   11 1
    14   15   14 1
    15   16   14 1
    16   17    4 1
    17   18   17 1
    18   19    1 1
    19   20   19 1
    20   21   19 1
    21   22   21 2
    22   23   21 1
    23   24   23 1
    24   25   24 1
    25   26   24 1
    26   27    1 1
    27   28   27 1
    28   29   27 1
    29   14   17 1
    30   17   19 1
    31   24   27 1
@<TRIPOS>SUBSTRUCTURE
     1 RES1 1

@<TRIPOS>CRYSIN
   6.7650    8.9300   16.1660  90.0000  90.0000  90.0000  19 1

