# MOL2 file generated by ConQuest
# Please check atom types

@<TRIPOS>MOLECULE
YUYLEJ
    26    26     1
SMALL
NO_CHARGES
****
Generated from CSD

@<TRIPOS>ATOM
      1 C1         2.3331    0.0116    2.4036 C.ar      1 RES1    0.0000
      2 C2         1.3623   -0.5408    3.2493 C.ar      1 RES1    0.0000
      3 C3         0.6619    0.2743    4.1072 C.ar      1 RES1    0.0000
      4 C4         0.8632    1.6241    4.1733 C.ar      1 RES1    0.0000
      5 C5         1.8285    2.1513    3.3532 C.ar      1 RES1    0.0000
      6 C6         2.5609    1.3793    2.4765 C.ar      1 RES1    0.0000
      7 C7         3.1325   -0.7919    1.4648 C.2       1 RES1    0.0000
      8 C8         3.1375   -2.0841    1.3475 C.2       1 RES1    0.0000
      9 C9         4.0039   -2.7934    0.3925 C.2       1 RES1    0.0000
     10 C10        4.6760   -4.9112   -0.4060 C.3       1 RES1    0.0000
     11 N1        -0.3595   -0.3252    4.9772 N.pl3     1 RES1    0.0000
     12 N2         2.1112    3.5969    3.4112 N.pl3     1 RES1    0.0000
     13 O1        -0.4627   -1.5254    4.9866 O.2       1 RES1    0.0000
     14 O2        -1.0608    0.4268    5.6368 O.2       1 RES1    0.0000
     15 O3         3.1100    4.0041    2.8798 O.2       1 RES1    0.0000
     16 O4         1.3464    4.3015    4.0249 O.2       1 RES1    0.0000
     17 O5         3.8210   -4.1042    0.4323 O.3       1 RES1    0.0000
     18 O6         4.7853   -2.2581   -0.3427 O.2       1 RES1    0.0000
     19 H1         1.1728   -1.3900    3.2143 H         1 RES1    0.0000
     20 H2         0.4062    2.1262    4.7061 H         1 RES1    0.0000
     21 H3         3.1637    1.7421    1.9410 H         1 RES1    0.0000
     22 H4         3.7097   -0.2932    0.9186 H         1 RES1    0.0000
     23 H5         2.6383   -2.6283    1.8479 H         1 RES1    0.0000
     24 H6         4.4853   -5.7519   -0.2617 H         1 RES1    0.0000
     25 H7         4.4879   -4.7208   -1.3178 H         1 RES1    0.0000
     26 H8         5.5735   -4.7545   -0.1376 H         1 RES1    0.0000
@<TRIPOS>BOND
     1    1    2 ar
     2    2    3 ar
     3    3    4 ar
     4    4    5 ar
     5    5    6 ar
     6    6    1 ar
     7    7    1 1
     8    8    7 2
     9    9    8 1
    10   10   17 1
    11   11    3 1
    12   12    5 1
    13   13   11 2
    14   14   11 2
    15   15   12 2
    16   16   12 2
    17   17    9 1
    18   18    9 2
    19   19    2 1
    20   20    4 1
    21   21    6 1
    22   22    7 1
    23   23    8 1
    24   24   10 1
    25   25   10 1
    26   26   10 1
@<TRIPOS>SUBSTRUCTURE
     1 RES1 1

@<TRIPOS>CRYSIN
   4.8420   16.8480   13.4890  90.0000  90.5600  90.0000 231 1

