# MOL2 file generated by ConQuest
# Please check atom types

@<TRIPOS>MOLECULE
YUYNUC
    31    31     1
SMALL
NO_CHARGES
****
Generated from CSD

@<TRIPOS>ATOM
      1 O1         3.5881    5.8156    5.9003 O.2       1 RES1    0.0000
      2 O2         4.8510    8.2867    2.8757 O.2       1 RES1    0.0000
      3 O3         1.4273    3.7993    6.4549 O.2       1 RES1    0.0000
      4 O4        -0.3266    2.5899    6.7157 O.2       1 RES1    0.0000
      5 O5        -2.9312    1.0975    3.0924 O.2       1 RES1    0.0000
      6 O6        -2.4073    1.6372    1.0613 O.2       1 RES1    0.0000
      7 N1         2.3194    6.0044    3.3791 N.2       1 RES1    0.0000
      8 N2         1.7882    5.1045    4.2125 N.pl3     1 RES1    0.0000
      9 H1         2.1056    4.9864    5.0971 H         1 RES1    0.0000
     10 N3         0.4366    3.2391    6.0154 N.pl3     1 RES1    0.0000
     11 N4        -2.2524    1.7125    2.2741 N.pl3     1 RES1    0.0000
     12 C1         4.7493    7.8499    5.6562 C.3       1 RES1    0.0000
     13 H2         4.9470    7.7067    6.6045 H         1 RES1    0.0000
     14 H3         4.2972    8.7125    5.5430 H         1 RES1    0.0000
     15 H4         5.5851    7.8499    5.1451 H         1 RES1    0.0000
     16 C2         3.8668    6.7600    5.1637 C.2       1 RES1    0.0000
     17 C3         3.2841    6.7867    3.7816 C.2       1 RES1    0.0000
     18 C4         3.7972    7.7014    2.7182 C.2       1 RES1    0.0000
     19 C5         3.0129    7.8367    1.4578 C.3       1 RES1    0.0000
     20 H5         3.4771    8.4474    0.8481 H         1 RES1    0.0000
     21 H6         2.1236    8.1946    1.6627 H         1 RES1    0.0000
     22 H7         2.9215    6.9573    1.0340 H         1 RES1    0.0000
     23 C6         0.7938    4.2656    3.7375 C.ar      1 RES1    0.0000
     24 C7         0.1258    3.3570    4.5818 C.ar      1 RES1    0.0000
     25 C8        -0.8749    2.5291    4.1060 C.ar      1 RES1    0.0000
     26 H8        -1.3287    1.9302    4.6876 H         1 RES1    0.0000
     27 C9        -1.1952    2.5917    2.7782 C.ar      1 RES1    0.0000
     28 C10       -0.5551    3.4595    1.9032 C.ar      1 RES1    0.0000
     29 H9        -0.7937    3.4786    0.9846 H         1 RES1    0.0000
     30 C11        0.4302    4.2910    2.3878 C.ar      1 RES1    0.0000
     31 H10        0.8691    4.8909    1.7963 H         1 RES1    0.0000
@<TRIPOS>BOND
     1    1   16 2
     2    2   18 2
     3    3   10 2
     4    4   10 2
     5    5   11 2
     6    6   11 2
     7    7    8 1
     8    8    9 1
     9   10   24 1
    10   11   27 1
    11   12   13 1
    12   14   12 1
    13   15   12 1
    14   16   12 1
    15   17    7 2
    16   18   17 1
    17   19   18 1
    18   20   19 1
    19   21   19 1
    20   22   19 1
    21   23    8 1
    22   24   23 ar
    23   25   24 ar
    24   26   25 1
    25   27   25 ar
    26   28   27 ar
    27   29   28 1
    28   30   23 ar
    29   31   30 1
    30   16   17 1
    31   28   30 ar
@<TRIPOS>SUBSTRUCTURE
     1 RES1 1

@<TRIPOS>CRYSIN
   4.8914   17.6760   14.5640  90.0000  94.3640  90.0000  14 1

