# MOL2 file generated by ConQuest
# Please check atom types

@<TRIPOS>MOLECULE
YUYQEP
    33    33     1
SMALL
NO_CHARGES
****
Generated from CSD

@<TRIPOS>ATOM
      1 O1         6.0997    3.1871    2.1299 O.2       1 RES1    0.0000
      2 O2         6.6590    5.1345    2.8234 O.2       1 RES1    0.0000
      3 N1        -0.1871    3.0778    7.2151 N.3       1 RES1    0.0000
      4 N2         1.9620    2.2571    7.4775 N.3       1 RES1    0.0000
      5 N3         1.5496    4.2931    6.3435 N.2       1 RES1    0.0000
      6 N4         5.9012    4.1721    2.8378 N.pl3     1 RES1    0.0000
      7 C1         1.1301    3.2205    6.9675 C.2       1 RES1    0.0000
      8 C2        -1.1461    3.8777    6.4675 C.3       1 RES1    0.0000
      9 H1        -1.3690    4.6641    6.9718 H         1 RES1    0.0000
     10 H2        -1.9406    3.3622    6.3104 H         1 RES1    0.0000
     11 H3        -0.7612    4.1360    5.6265 H         1 RES1    0.0000
     12 C3        -0.7145    2.4178    8.3948 C.3       1 RES1    0.0000
     13 H4         0.0117    2.1325    8.9526 H         1 RES1    0.0000
     14 H5        -1.2328    1.6549    8.1289 H         1 RES1    0.0000
     15 H6        -1.2720    3.0300    8.8818 H         1 RES1    0.0000
     16 C4         3.3189    2.5722    7.8745 C.3       1 RES1    0.0000
     17 H7         3.9248    2.3158    7.1756 H         1 RES1    0.0000
     18 H8         3.5368    2.0928    8.6780 H         1 RES1    0.0000
     19 H9         3.3951    3.5157    8.0339 H         1 RES1    0.0000
     20 C5         1.6737    0.8406    7.3497 C.3       1 RES1    0.0000
     21 H10        0.7841    0.7250    7.0081 H         1 RES1    0.0000
     22 H11        1.7424    0.4216    8.2100 H         1 RES1    0.0000
     23 H12        2.3031    0.4388    6.7456 H         1 RES1    0.0000
     24 C6         2.6373    4.2235    5.5035 C.ar      1 RES1    0.0000
     25 C7         3.5009    5.3223    5.3831 C.ar      1 RES1    0.0000
     26 H13        3.3500    6.0789    5.9028 H         1 RES1    0.0000
     27 C8         4.5508    5.3051    4.5238 C.ar      1 RES1    0.0000
     28 H14        5.1198    6.0392    4.4677 H         1 RES1    0.0000
     29 C9         4.7721    4.1928    3.7291 C.ar      1 RES1    0.0000
     30 C10        3.9378    3.1049    3.7964 C.ar      1 RES1    0.0000
     31 H15        4.0859    2.3637    3.2553 H         1 RES1    0.0000
     32 C11        2.8925    3.1257    4.6633 C.ar      1 RES1    0.0000
     33 H16        2.3264    2.3880    4.7025 H         1 RES1    0.0000
@<TRIPOS>BOND
     1    1    6 2
     2    2    6 2
     3    3    7 1
     4    4    7 1
     5    5    7 2
     6    6   29 1
     7    8    3 1
     8    9    8 1
     9   10    8 1
    10   11    8 1
    11   12    3 1
    12   13   12 1
    13   14   12 1
    14   15   12 1
    15   16    4 1
    16   17   16 1
    17   18   16 1
    18   19   16 1
    19   20    4 1
    20   21   20 1
    21   22   20 1
    22   23   20 1
    23   24    5 1
    24   25   24 ar
    25   26   25 1
    26   27   25 ar
    27   28   27 1
    28   29   27 ar
    29   30   29 ar
    30   31   30 1
    31   32   24 ar
    32   33   32 1
    33   30   32 ar
@<TRIPOS>SUBSTRUCTURE
     1 RES1 1

@<TRIPOS>CRYSIN
   8.1532    9.0285   17.2766  90.0000  91.6150  90.0000 231 1

