# MOL2 file generated by ConQuest
# Please check atom types

@<TRIPOS>MOLECULE
YUZJIO
    32    32     1
SMALL
NO_CHARGES
****
Generated from CSD

@<TRIPOS>ATOM
      1 C1         0.7800    2.4517   -1.2589 C.ar      1 RES1    0.0000
      2 C2        -0.0281    3.4913   -0.8183 C.ar      1 RES1    0.0000
      3 H1        -0.2334    3.5774    0.1047 H         1 RES1    0.0000
      4 C3        -0.5363    4.4066   -1.7367 C.ar      1 RES1    0.0000
      5 H2        -1.0881    5.1195   -1.4367 H         1 RES1    0.0000
      6 C4        -0.2444    4.2846   -3.0698 C.ar      1 RES1    0.0000
      7 H3        -0.6145    4.8972   -3.6949 H         1 RES1    0.0000
      8 C5         0.5853    3.2727   -3.5055 C.ar      1 RES1    0.0000
      9 H4         0.7967    3.1979   -4.4291 H         1 RES1    0.0000
     10 C6         1.1064    2.3725   -2.6083 C.ar      1 RES1    0.0000
     11 H5         1.6942    1.6906   -2.9116 H         1 RES1    0.0000
     12 C7         1.2899    1.4454   -0.3092 C.2       1 RES1    0.0000
     13 N1         1.4874    0.2545   -0.7463 N.2       1 RES1    0.0000
     14 O1         2.0327   -0.5849    0.2291 O.3       1 RES1    0.0000
     15 H6         2.2047   -1.3338   -0.1102 H         1 RES1    0.0000
     16 C8         1.6453    1.8793    1.0943 C.2       1 RES1    0.0000
     17 O2         2.5846    2.6532    1.2637 O.2       1 RES1    0.0000
     18 N2         0.8957    1.3802    2.0657 N.am      1 RES1    0.0000
     19 H7         0.1766    0.9315    1.8295 H         1 RES1    0.0000
     20 C9         1.1635    1.5122    3.5125 C.3       1 RES1    0.0000
     21 C10        1.1919    2.9669    3.9229 C.3       1 RES1    0.0000
     22 H8         1.9260    3.4224    3.4604 H         1 RES1    0.0000
     23 H9         1.3259    3.0309    4.8916 H         1 RES1    0.0000
     24 H10        0.3414    3.3909    3.6818 H         1 RES1    0.0000
     25 C11        0.0324    0.8100    4.2382 C.3       1 RES1    0.0000
     26 H11       -0.8220    1.2134    3.9786 H         1 RES1    0.0000
     27 H12        0.1584    0.9022    5.2047 H         1 RES1    0.0000
     28 H13        0.0310   -0.1399    3.9982 H         1 RES1    0.0000
     29 C12        2.4926    0.8350    3.8095 C.3       1 RES1    0.0000
     30 H14        2.4495   -0.1041    3.5335 H         1 RES1    0.0000
     31 H15        2.6768    0.8849    4.7716 H         1 RES1    0.0000
     32 H16        3.2072    1.2872    3.3164 H         1 RES1    0.0000
@<TRIPOS>BOND
     1    1    2 ar
     2    2    3 1
     3    4    2 ar
     4    5    4 1
     5    6    4 ar
     6    7    6 1
     7    8    6 ar
     8    9    8 1
     9   10    1 ar
    10   11   10 1
    11   12    1 1
    12   13   12 2
    13   14   13 1
    14   15   14 1
    15   16   12 1
    16   17   16 2
    17   18   16 1
    18   19   18 1
    19   20   18 1
    20   21   20 1
    21   22   21 1
    22   23   21 1
    23   24   21 1
    24   25   20 1
    25   26   25 1
    26   27   25 1
    27   28   25 1
    28   29   20 1
    29   30   29 1
    30   31   29 1
    31   32   29 1
    32    8   10 ar
@<TRIPOS>SUBSTRUCTURE
     1 RES1 1

@<TRIPOS>CRYSIN
  10.6040   10.8440   11.1110  90.0000 100.9390  90.0000  14 2

