# MOL2 file generated by ConQuest
# Please check atom types

@<TRIPOS>MOLECULE
ZACNID
    20    20     1
SMALL
NO_CHARGES
****
Generated from CSD

@<TRIPOS>ATOM
      1 O1         1.5920    2.7871    1.5897 O.2       1 RES1    0.0000
      2 O2        -0.1335    3.5583    0.5281 O.2       1 RES1    0.0000
      3 N1         1.6721    0.2260    2.0750 N.3       1 RES1    0.0000
      4 N2         0.3950    2.6848    1.2303 N.pl3     1 RES1    0.0000
      5 C1         0.3693    0.3331    1.8173 C.ar      1 RES1    0.0000
      6 C2        -0.3289    1.5263    1.5841 C.ar      1 RES1    0.0000
      7 C3        -0.3952   -0.8860    1.6700 C.ar      1 RES1    0.0000
      8 H1         0.0826   -1.7281    1.8059 H         1 RES1    0.0000
      9 H2         2.1909    0.9600    2.2065 H         1 RES1    0.0000
     10 H3         2.0466   -0.5695    2.0690 H         1 RES1    0.0000
     11 O1A       -3.6820    2.7871    1.4002 O.2       1 RES1    0.0000
     12 O2A       -1.9565    3.5583    2.4618 O.2       1 RES1    0.0000
     13 N1A       -3.7621    0.2260    0.9149 N.3       1 RES1    0.0000
     14 N2A       -2.4850    2.6848    1.7596 N.pl3     1 RES1    0.0000
     15 C1A       -2.4593    0.3331    1.1726 C.ar      1 RES1    0.0000
     16 C2A       -1.7611    1.5263    1.4059 C.ar      1 RES1    0.0000
     17 C3A       -1.6948   -0.8860    1.3199 C.ar      1 RES1    0.0000
     18 H1A       -2.1725   -1.7281    1.1840 H         1 RES1    0.0000
     19 H2A       -4.2808    0.9600    0.7834 H         1 RES1    0.0000
     20 H3A       -4.1366   -0.5695    0.9209 H         1 RES1    0.0000
@<TRIPOS>BOND
     1    1    4 2
     2    2    4 2
     3    3    5 1
     4    4    6 1
     5    5    6 ar
     6    6   16 ar
     7    7    5 ar
     8    8    7 1
     9    9    3 1
    10   10    3 1
    11   11   14 2
    12   12   14 2
    13   13   15 1
    14   14   16 1
    15   15   16 ar
    16   17    7 ar
    17   18   17 1
    18   19   13 1
    19   20   13 1
    20   15   17 ar
@<TRIPOS>SUBSTRUCTURE
     1 RES1 1

@<TRIPOS>CRYSIN
  12.2042   10.8478    7.2959  90.0000 124.9540  90.0000  15 1

