# MOL2 file generated by ConQuest
# Please check atom types

@<TRIPOS>MOLECULE
ZACSII
    15    15     1
SMALL
NO_CHARGES
****
Generated from CSD

@<TRIPOS>ATOM
      1 C1         3.1739    2.4426    5.6795 C.2       1 RES1    0.0000
      2 C2         1.7507    2.2973    5.5831 C.2       1 RES1    0.0000
      3 N1         3.5590    3.2921    4.7650 N.2       1 RES1    0.0000
      4 N2         4.1320    1.8016    6.4474 N.pl3     1 RES1    0.0000
      5 H1         4.9845    1.8778    6.2172 H         1 RES1    0.0000
      6 N3         0.9644    0.2422    6.4691 N.pl3     1 RES1    0.0000
      7 N4         1.3319    3.0627    4.6109 N.2       1 RES1    0.0000
      8 N5         3.9997    1.8669    7.8179 N.pl3     1 RES1    0.0000
      9 N6         0.8183    1.6085    6.3436 N.3       1 RES1    0.0000
     10 H2        -0.0190    1.8298    6.3265 H         1 RES1    0.0000
     11 O1         2.4367    3.6804    4.0909 O.3       1 RES1    0.0000
     12 O2         5.0059    1.5876    8.4574 O.2       1 RES1    0.0000
     13 O3         2.0766   -0.2186    6.2921 O.2       1 RES1    0.0000
     14 O4         2.9046    2.1499    8.2687 O.2       1 RES1    0.0000
     15 O5        -0.0445   -0.3727    6.7895 O.2       1 RES1    0.0000
@<TRIPOS>BOND
     1    1    2 1
     2    2    7 2
     3    3    1 2
     4    4    1 1
     5    5    4 1
     6    6    9 1
     7    7   11 1
     8    8    4 1
     9    9    2 1
    10   10    9 1
    11   11    3 1
    12   12    8 2
    13   13    6 2
    14   14    8 2
    15   15    6 2
@<TRIPOS>SUBSTRUCTURE
     1 RES1 1

@<TRIPOS>CRYSIN
  11.0976    5.7127   10.4325  90.0000  93.2440  90.0000  14 1

