# MOL2 file generated by ConQuest
# Please check atom types

@<TRIPOS>MOLECULE
ZADXAG
    63    68     1
SMALL
NO_CHARGES
****
Generated from CSD

@<TRIPOS>ATOM
      1 O1         7.6413    1.4266    0.8225 O.3       1 RES1    0.0000
      2 O2         9.2731   -3.7836    3.9749 O.3       1 RES1    0.0000
      3 O3        10.3140    1.7430    1.4179 O.3       1 RES1    0.0000
      4 O4         7.7845    4.3735   -1.1334 O.2       1 RES1    0.0000
      5 O5         9.7668    2.6652    3.4380 O.3       1 RES1    0.0000
      6 O6         4.4687    2.6112    4.4039 O.2       1 RES1    0.0000
      7 N1         7.8369    2.7906    0.4141 N.am      1 RES1    0.0000
      8 N2         5.8919    4.2725    3.7305 N.am      1 RES1    0.0000
      9 C1         8.1688   -0.2708    4.0299 C.ar      1 RES1    0.0000
     10 C2         8.8922   -2.5131    3.6192 C.ar      1 RES1    0.0000
     11 C3         8.6431   -0.9546    1.7999 C.ar      1 RES1    0.0000
     12 C4         7.8368    4.3868    2.2863 C.3       1 RES1    0.0000
     13 C5         8.0083    1.4453    2.2576 C.3       1 RES1    0.0000
     14 C6         7.4598    3.2124   -0.7996 C.2       1 RES1    0.0000
     15 C7         8.6891    3.5210    1.3674 C.3       1 RES1    0.0000
     16 C8         9.2558    2.3377    2.1497 C.3       1 RES1    0.0000
     17 C9         8.2512    0.0488    2.6866 C.ar      1 RES1    0.0000
     18 C10        3.8658    4.8641    4.9121 C.ar      1 RES1    0.0000
     19 C11        6.8670    3.5143    3.0434 C.2       1 RES1    0.0000
     20 C12        5.7261    1.4231   -1.2710 C.ar      1 RES1    0.0000
     21 C13        9.4508   -4.0116    5.3847 C.3       1 RES1    0.0000
     22 C14        3.7423    6.1296    4.3454 C.ar      1 RES1    0.0000
     23 C15        6.7191    2.3000   -1.7024 C.ar      1 RES1    0.0000
     24 C16        8.9505   -2.2267    2.2576 C.ar      1 RES1    0.0000
     25 C17        6.3411    1.6029   -3.9783 C.ar      1 RES1    0.0000
     26 C18        6.9370    2.1779    3.0262 C.2       1 RES1    0.0000
     27 C19        7.0018    2.4043   -3.0640 C.ar      1 RES1    0.0000
     28 C20       11.3370    1.3587    2.3562 C.3       1 RES1    0.0000
     29 C21        2.8372    7.0442    4.8708 C.ar      1 RES1    0.0000
     30 C22        4.7613    3.8229    4.3374 C.2       1 RES1    0.0000
     31 C23        5.0357    0.6682   -2.1888 C.ar      1 RES1    0.0000
     32 C24        5.3480    0.7282   -3.5378 C.ar      1 RES1    0.0000
     33 C25        3.0719    4.5245    6.0076 C.ar      1 RES1    0.0000
     34 C26       11.1894    2.4310    3.4173 C.3       1 RES1    0.0000
     35 C27        2.1838    5.4524    6.5445 C.ar      1 RES1    0.0000
     36 C28        2.0666    6.7090    5.9583 C.ar      1 RES1    0.0000
     37 C29        8.4993   -1.5407    4.5140 C.ar      1 RES1    0.0000
     38 H1         6.0333    5.1401    3.7714 H         1 RES1    0.0000
     39 H2         7.8790    0.3943    4.6432 H         1 RES1    0.0000
     40 H3         8.7003   -0.7657    0.8705 H         1 RES1    0.0000
     41 H4         8.4181    4.8723    2.9233 H         1 RES1    0.0000
     42 H5         7.3387    5.0544    1.7505 H         1 RES1    0.0000
     43 H6         9.4038    4.0478    0.9080 H         1 RES1    0.0000
     44 H7         5.5265    1.3485   -0.3455 H         1 RES1    0.0000
     45 H8         8.6122   -3.8220    5.8541 H         1 RES1    0.0000
     46 H9        10.1567   -3.4235    5.7244 H         1 RES1    0.0000
     47 H10        9.7046   -4.9469    5.5342 H         1 RES1    0.0000
     48 H11        4.2769    6.3675    3.5978 H         1 RES1    0.0000
     49 H12        9.2018   -2.9052    1.6416 H         1 RES1    0.0000
     50 H13        6.5625    1.6473   -4.9014 H         1 RES1    0.0000
     51 H14        6.2936    1.6761    3.5122 H         1 RES1    0.0000
     52 H15        7.6509    3.0299   -3.3657 H         1 RES1    0.0000
     53 H16       12.2355    1.3798    1.9421 H         1 RES1    0.0000
     54 H17       11.1679    0.4567    2.7274 H         1 RES1    0.0000
     55 H18        2.7516    7.9036    4.4766 H         1 RES1    0.0000
     56 H19        4.3369    0.0952   -1.8946 H         1 RES1    0.0000
     57 H20        4.8872    0.1778   -4.1599 H         1 RES1    0.0000
     58 H21        3.1366    3.6553    6.3876 H         1 RES1    0.0000
     59 H22       11.5128    2.1122    4.2969 H         1 RES1    0.0000
     60 H23       11.6841    3.2522    3.1681 H         1 RES1    0.0000
     61 H24        1.6621    5.2309    7.3058 H         1 RES1    0.0000
     62 H25        1.4507    7.3399    6.3124 H         1 RES1    0.0000
     63 H26        8.4530   -1.7301    5.4434 H         1 RES1    0.0000
@<TRIPOS>BOND
     1    1    7 1
     2    2   10 1
     3    3   16 1
     4    4   14 2
     5    5   16 1
     6    6   30 2
     7    7   14 1
     8    8   19 1
     9    9   17 ar
    10   10   24 ar
    11   11   17 ar
    12   12   15 1
    13   13    1 1
    14   14   23 1
    15   15    7 1
    16   16   13 1
    17   17   13 1
    18   18   22 ar
    19   19   12 1
    20   20   23 ar
    21   21    2 1
    22   22   29 ar
    23   23   27 ar
    24   24   11 ar
    25   25   27 ar
    26   26   13 1
    27   27   52 1
    28   28    3 1
    29   29   36 ar
    30   30    8 1
    31   31   20 ar
    32   32   25 ar
    33   33   18 ar
    34   34    5 1
    35   35   33 ar
    36   36   35 ar
    37   37    9 ar
    38   38    8 1
    39   39    9 1
    40   40   11 1
    41   41   12 1
    42   42   12 1
    43   43   15 1
    44   44   20 1
    45   45   21 1
    46   46   21 1
    47   47   21 1
    48   48   22 1
    49   49   24 1
    50   50   25 1
    51   51   26 1
    52   53   28 1
    53   54   28 1
    54   55   29 1
    55   56   31 1
    56   57   32 1
    57   58   33 1
    58   59   34 1
    59   60   34 1
    60   61   35 1
    61   62   36 1
    62   63   37 1
    63   10   37 ar
    64   15   16 1
    65   18   30 1
    66   19   26 2
    67   28   34 1
    68   31   32 ar
@<TRIPOS>SUBSTRUCTURE
     1 RES1 1

@<TRIPOS>CRYSIN
   9.7137   22.2005   11.5536  90.0000  96.8370  90.0000  14 1

