# MOL2 file generated by ConQuest
# Please check atom types

@<TRIPOS>MOLECULE
ZAFMIF
    53    55     1
SMALL
NO_CHARGES
****
Generated from CSD

@<TRIPOS>ATOM
      1 C1         0.0907    0.6762    8.9864 C.3       1 RES1    0.0000
      2 C2         0.3162    2.1834    9.2381 C.3       1 RES1    0.0000
      3 H1        -0.2707    2.5172    9.9763 H         1 RES1    0.0000
      4 C3         1.7943    2.5046    9.5197 C.3       1 RES1    0.0000
      5 H2         1.9812    2.4813   10.4915 H         1 RES1    0.0000
      6 H3         2.3895    1.8592    9.0617 H         1 RES1    0.0000
      7 C4         1.9864    3.9120    8.9619 C.3       1 RES1    0.0000
      8 H4         1.6990    4.5976    9.6155 H         1 RES1    0.0000
      9 H5         2.9330    4.0732    8.7191 H         1 RES1    0.0000
     10 C5         1.1035    3.9226    7.7396 C.2       1 RES1    0.0000
     11 C6        -0.0096    2.9012    7.8923 C.3       1 RES1    0.0000
     12 H6        -0.8847    3.3784    7.9770 H         1 RES1    0.0000
     13 C7        -0.1471    1.7635    6.8241 C.3       1 RES1    0.0000
     14 H7        -1.1254    1.5950    6.7016 H         1 RES1    0.0000
     15 C8         0.4397    0.5190    7.4986 C.3       1 RES1    0.0000
     16 H8         1.4202    0.4798    7.3710 H         1 RES1    0.0000
     17 H9         0.0343   -0.3048    7.1282 H         1 RES1    0.0000
     18 C9         0.9755   -0.1472    9.9069 C.2       1 RES1    0.0000
     19 C10        1.3754   -0.6274   12.1881 C.3       1 RES1    0.0000
     20 H10        1.3819   -1.5935   12.0233 H         1 RES1    0.0000
     21 H11        0.9888   -0.4486   13.0695 H         1 RES1    0.0000
     22 H12        2.2921   -0.2845   12.1595 H         1 RES1    0.0000
     23 C11       -1.3510    0.2623    9.2535 C.2       1 RES1    0.0000
     24 C12       -2.7668   -1.6083    9.5288 C.3       1 RES1    0.0000
     25 H13       -3.0268   -1.3074   10.4234 H         1 RES1    0.0000
     26 H14       -2.7301   -2.5868    9.5111 H         1 RES1    0.0000
     27 H15       -3.4268   -1.2942    8.8756 H         1 RES1    0.0000
     28 C13        0.4398    2.0126    5.4393 C.3       1 RES1    0.0000
     29 H16        1.4052    2.1616    5.5147 H         1 RES1    0.0000
     30 H17        0.0186    2.8032    5.0426 H         1 RES1    0.0000
     31 H18        0.2727    1.2332    4.8679 H         1 RES1    0.0000
     32 C14        2.5137    6.2697    5.5827 C.ar      1 RES1    0.0000
     33 C15        3.5205    7.2696    5.4926 C.ar      1 RES1    0.0000
     34 C16        3.7695    7.9585    4.3091 C.ar      1 RES1    0.0000
     35 H19        4.4404    8.6293    4.2733 H         1 RES1    0.0000
     36 C17        3.0319    7.6544    3.1962 C.ar      1 RES1    0.0000
     37 C18        2.0474    6.6616    3.2210 C.ar      1 RES1    0.0000
     38 H20        1.5539    6.4575    2.4351 H         1 RES1    0.0000
     39 C19        1.8005    5.9855    4.3852 C.ar      1 RES1    0.0000
     40 H21        1.1348    5.3079    4.3936 H         1 RES1    0.0000
     41 N1         1.1864    4.6669    6.6995 N.2       1 RES1    0.0000
     42 N2         2.2329    5.5841    6.7145 N.pl3     1 RES1    0.0000
     43 N3         4.3723    7.6056    6.6167 N.pl3     1 RES1    0.0000
     44 N4         3.3008    8.3618    1.9506 N.pl3     1 RES1    0.0000
     45 O1         1.9102   -0.8267    9.5674 O.2       1 RES1    0.0000
     46 O2         0.5820    0.0295   11.1705 O.3       1 RES1    0.0000
     47 O3        -2.2616    1.0071    9.4809 O.2       1 RES1    0.0000
     48 O4        -1.4644   -1.0697    9.1974 O.3       1 RES1    0.0000
     49 O5         4.1798    7.0263    7.6910 O.2       1 RES1    0.0000
     50 O6         5.2670    8.4364    6.4585 O.2       1 RES1    0.0000
     51 O7         4.1458    9.2487    1.9478 O.2       1 RES1    0.0000
     52 O8         2.6620    8.0237    0.9520 O.2       1 RES1    0.0000
     53 H22        2.6274    5.8378    7.4686 H         1 RES1    0.0000
@<TRIPOS>BOND
     1    1    2 1
     2    2    3 1
     3    4    2 1
     4    5    4 1
     5    6    4 1
     6    7    4 1
     7    8    7 1
     8    9    7 1
     9   10    7 1
    10   11    2 1
    11   12   11 1
    12   13   11 1
    13   14   13 1
    14   15    1 1
    15   16   15 1
    16   17   15 1
    17   18    1 1
    18   19   20 1
    19   21   19 1
    20   22   19 1
    21   23    1 1
    22   24   25 1
    23   26   24 1
    24   27   24 1
    25   28   13 1
    26   29   28 1
    27   30   28 1
    28   31   28 1
    29   32   33 ar
    30   33   34 ar
    31   34   35 1
    32   36   34 ar
    33   37   36 ar
    34   38   37 1
    35   39   32 ar
    36   40   39 1
    37   41   10 2
    38   42   32 1
    39   43   33 1
    40   44   36 1
    41   45   18 2
    42   46   18 1
    43   47   23 2
    44   48   23 1
    45   49   43 2
    46   50   43 2
    47   51   44 2
    48   52   44 2
    49   53   42 1
    50   10   11 1
    51   13   15 1
    52   19   46 1
    53   24   48 1
    54   37   39 ar
    55   41   42 1
@<TRIPOS>SUBSTRUCTURE
     1 RES1 1

