# MOL2 file generated by ConQuest
# Please check atom types

@<TRIPOS>MOLECULE
ZAFYUA
    52    57     1
SMALL
NO_CHARGES
****
Generated from CSD

@<TRIPOS>ATOM
      1 O1        -0.6822    2.3839    6.8919 O.3       1 RES1    0.0000
      2 O2         0.2109    1.8748    5.8165 O.3       1 RES1    0.0000
      3 O3         0.2453    0.2858    8.2060 O.3       1 RES1    0.0000
      4 O4        -1.6341    0.2333    6.7799 O.3       1 RES1    0.0000
      5 N1         1.0993   -0.0138    7.0551 N.3       1 RES1    0.0000
      6 C1        -1.8942    1.6118    6.8032 C.3       1 RES1    0.0000
      7 C2         1.3842    1.2871    6.4092 C.3       1 RES1    0.0000
      8 C3        -1.0393   -0.2805    7.9662 C.3       1 RES1    0.0000
      9 C4        -1.8802    0.0269    9.1715 C.ar      1 RES1    0.0000
     10 C5        -1.8804   -0.7872   10.2802 C.ar      1 RES1    0.0000
     11 C6        -2.6627   -0.4621   11.4067 C.ar      1 RES1    0.0000
     12 C7        -3.4342    0.6710   11.4100 C.ar      1 RES1    0.0000
     13 C8        -3.4786    1.5322   10.2824 C.ar      1 RES1    0.0000
     14 C9        -4.2588    2.7095   10.2269 C.ar      1 RES1    0.0000
     15 C10       -4.2566    3.5158    9.1216 C.ar      1 RES1    0.0000
     16 C11       -3.4707    3.1797    8.0006 C.ar      1 RES1    0.0000
     17 C12       -2.7129    2.0460    7.9929 C.ar      1 RES1    0.0000
     18 C13       -2.6830    1.1923    9.1438 C.ar      1 RES1    0.0000
     19 C14        2.3228   -0.5944    7.6721 C.3       1 RES1    0.0000
     20 C15        1.9442   -1.9097    8.3236 C.ar      1 RES1    0.0000
     21 C16        2.0913   -2.0916    9.6987 C.ar      1 RES1    0.0000
     22 C17        1.6381   -3.2496   10.3080 C.ar      1 RES1    0.0000
     23 C18        1.0373   -4.2458    9.5522 C.ar      1 RES1    0.0000
     24 C19        0.9300   -4.0927    8.1793 C.ar      1 RES1    0.0000
     25 C20        1.3783   -2.9303    7.5734 C.ar      1 RES1    0.0000
     26 C21        2.2487    1.0847    5.1795 C.ar      1 RES1    0.0000
     27 C22        2.1093   -0.0563    4.3982 C.ar      1 RES1    0.0000
     28 C23        2.8123   -0.1784    3.2018 C.ar      1 RES1    0.0000
     29 C24        3.6297    0.8544    2.7790 C.ar      1 RES1    0.0000
     30 C25        3.7666    1.9960    3.5459 C.ar      1 RES1    0.0000
     31 C26        3.0771    2.1073    4.7445 C.ar      1 RES1    0.0000
     32 H1        -2.2468    1.8451    5.9808 H         1 RES1    0.0000
     33 H2         1.6895    1.9233    7.1139 H         1 RES1    0.0000
     34 H3        -0.9498   -1.2449    7.7798 H         1 RES1    0.0000
     35 H4        -1.3603   -1.5581   10.2869 H         1 RES1    0.0000
     36 H5        -2.6555   -1.0192   12.1514 H         1 RES1    0.0000
     37 H6        -3.9375    0.8789   12.1647 H         1 RES1    0.0000
     38 H7        -4.7841    2.9403   10.9583 H         1 RES1    0.0000
     39 H8        -4.7754    4.2871    9.1105 H         1 RES1    0.0000
     40 H9        -3.4685    3.7398    7.2571 H         1 RES1    0.0000
     41 H10        2.6909    0.0308    8.3536 H         1 RES1    0.0000
     42 H11        3.0177   -0.7457    6.9763 H         1 RES1    0.0000
     43 H12        2.4966   -1.4291   10.2103 H         1 RES1    0.0000
     44 H13        1.7367   -3.3593   11.2258 H         1 RES1    0.0000
     45 H14        0.7079   -5.0111    9.9639 H         1 RES1    0.0000
     46 H15        0.5564   -4.7709    7.6644 H         1 RES1    0.0000
     47 H16        1.2991   -2.8325    6.6511 H         1 RES1    0.0000
     48 H17        1.5439   -0.7418    4.6756 H         1 RES1    0.0000
     49 H18        2.7332   -0.9509    2.6902 H         1 RES1    0.0000
     50 H19        4.0896    0.7811    1.9732 H         1 RES1    0.0000
     51 H20        4.3193    2.6869    3.2595 H         1 RES1    0.0000
     52 H21        3.1717    2.8749    5.2605 H         1 RES1    0.0000
@<TRIPOS>BOND
     1    1    2 1
     2    2    7 1
     3    3    5 1
     4    4    6 1
     5    5    7 1
     6    6    1 1
     7    7   26 1
     8    8    3 1
     9    9    8 1
    10   10    9 ar
    11   11   10 ar
    12   12   11 ar
    13   13   12 ar
    14   14   13 ar
    15   15   14 ar
    16   16   15 ar
    17   17    6 1
    18   18    9 ar
    19   19    5 1
    20   20   19 1
    21   21   20 ar
    22   22   21 ar
    23   23   22 ar
    24   24   23 ar
    25   25   20 ar
    26   26   27 ar
    27   27   28 ar
    28   28   29 ar
    29   29   30 ar
    30   30   31 ar
    31   31   26 ar
    32   32    6 1
    33   33    7 1
    34   34    8 1
    35   35   10 1
    36   36   11 1
    37   37   12 1
    38   38   14 1
    39   39   15 1
    40   40   16 1
    41   41   19 1
    42   42   19 1
    43   43   21 1
    44   44   22 1
    45   45   23 1
    46   46   24 1
    47   47   25 1
    48   48   27 1
    49   49   28 1
    50   50   29 1
    51   51   30 1
    52   52   31 1
    53    4    8 1
    54   13   18 ar
    55   16   17 ar
    56   17   18 ar
    57   24   25 ar
@<TRIPOS>SUBSTRUCTURE
     1 RES1 1

@<TRIPOS>CRYSIN
   7.9960   11.7510   11.7650 108.4200  90.1700 107.3000   2 1

