# MOL2 file generated by ConQuest
# Please check atom types

@<TRIPOS>MOLECULE
ZAGGOD
    30    33     1
SMALL
NO_CHARGES
****
Generated from CSD

@<TRIPOS>ATOM
      1 O1         2.4440   -0.4397   12.8682 O.3       1 RES1    0.0000
      2 O2         8.2909   -0.5481   19.6590 O.3       1 RES1    0.0000
      3 O3        10.5457   -1.0337   18.2169 O.2       1 RES1    0.0000
      4 O4        10.1547    0.7328   16.9110 O.3       1 RES1    0.0000
      5 O5         9.9081    0.3399   14.0560 O.3       1 RES1    0.0000
      6 O6         8.4377   -0.7709   11.8418 O.3       1 RES1    0.0000
      7 O7         5.5992   -0.0746   11.2477 O.3       1 RES1    0.0000
      8 O8         4.2355   -1.8706   11.4160 O.2       1 RES1    0.0000
      9 N1         2.3993   -0.9357   14.1817 N.2       1 RES1    0.0000
     10 N2         4.8514   -0.6443   16.7001 N.ar      1 RES1    0.0000
     11 N3         6.9800   -1.0693   19.5105 N.2       1 RES1    0.0000
     12 C1         3.7435    0.1596   12.6285 C.3       1 RES1    0.0000
     13 C2         4.4041    0.2272   14.0074 C.3       1 RES1    0.0000
     14 C3         3.4487   -0.5932   14.8022 C.2       1 RES1    0.0000
     15 C4         3.6678   -1.0172   16.2013 C.ar      1 RES1    0.0000
     16 C5         2.7434   -1.7353   16.9272 C.ar      1 RES1    0.0000
     17 C6         3.0485   -2.1221   18.2169 C.ar      1 RES1    0.0000
     18 C7         4.2653   -1.7786   18.7319 C.ar      1 RES1    0.0000
     19 C8         5.1438   -1.0476   17.9614 C.ar      1 RES1    0.0000
     20 C9         6.4903   -0.6400   18.4034 C.2       1 RES1    0.0000
     21 C10        7.3941    0.1882   17.5964 C.3       1 RES1    0.0000
     22 C11        8.5960    0.3313   18.5494 C.3       1 RES1    0.0000
     23 C12        9.8668   -0.1205   17.9086 C.2       1 RES1    0.0000
     24 C13       11.2603    0.4024   16.0391 C.3       1 RES1    0.0000
     25 C14       10.9529    1.0207   14.7130 C.3       1 RES1    0.0000
     26 C15       10.3909   -0.6669   13.1801 C.3       1 RES1    0.0000
     27 C16        9.2991   -1.4994   12.6650 C.3       1 RES1    0.0000
     28 C17        7.4904   -1.6130   11.2213 C.3       1 RES1    0.0000
     29 C18        6.5396   -0.8247   10.4224 C.3       1 RES1    0.0000
     30 C19        4.5337   -0.7449   11.6958 C.2       1 RES1    0.0000
@<TRIPOS>BOND
     1    1    9 1
     2    2   11 1
     3    3   23 2
     4    4   23 1
     5    5   25 1
     6    6   27 1
     7    7   29 1
     8    8   30 2
     9    9   14 2
    10   10   15 ar
    11   11   20 2
    12   12    1 1
    13   13   12 1
    14   14   13 1
    15   15   14 1
    16   16   15 ar
    17   17   16 ar
    18   18   17 ar
    19   19   10 ar
    20   20   19 1
    21   21   20 1
    22   22    2 1
    23   23   22 1
    24   24    4 1
    25   25   24 1
    26   26    5 1
    27   27   26 1
    28   28    6 1
    29   29   28 1
    30   30    7 1
    31   12   30 1
    32   18   19 ar
    33   21   22 1
@<TRIPOS>SUBSTRUCTURE
     1 RES1 1

@<TRIPOS>CRYSIN
  11.4690    8.6721   40.5540  90.0000  90.0000  90.0000  61 1

