# MOL2 file generated by ConQuest
# Please check atom types

@<TRIPOS>MOLECULE
ZAGGIX
    30    33     1
SMALL
NO_CHARGES
****
Generated from CSD

@<TRIPOS>ATOM
      1 O1        -1.7101    9.4041    5.3816 O.3       1 RES1    0.0000
      2 O2         1.0823    3.8569   12.2452 O.3       1 RES1    0.0000
      3 O3         2.0495    2.7107    9.8816 O.2       1 RES1    0.0000
      4 O4         0.1831    1.4676    9.7936 O.3       1 RES1    0.0000
      5 O5        -0.8417    2.5325    7.5179 O.3       1 RES1    0.0000
      6 O6        -1.2165    4.1028    5.1242 O.3       1 RES1    0.0000
      7 O7        -2.8231    6.2113    4.2726 O.3       1 RES1    0.0000
      8 O8        -1.1369    7.5028    3.5198 O.2       1 RES1    0.0000
      9 N1        -0.7976    9.4390    6.4755 N.2       1 RES1    0.0000
     10 N2         1.2912    5.1987   11.8420 N.2       1 RES1    0.0000
     11 C1        -2.4291    8.1572    5.4223 C.3       1 RES1    0.0000
     12 C2        -2.0917    7.5357    6.7672 C.3       1 RES1    0.0000
     13 C3        -1.0075    8.4399    7.2412 C.2       1 RES1    0.0000
     14 C4        -0.1946    8.2385    8.4488 C.ar      1 RES1    0.0000
     15 C5         0.6873    9.2124    8.9078 C.ar      1 RES1    0.0000
     16 C6         1.4484    8.9878   10.0102 C.ar      1 RES1    0.0000
     17 C7         1.3804    7.7990   10.6923 C.ar      1 RES1    0.0000
     18 C8         0.5033    6.8038   10.2719 C.ar      1 RES1    0.0000
     19 C9        -0.2943    7.0497    9.1694 C.ar      1 RES1    0.0000
     20 C10        0.4342    5.5007   10.9175 C.2       1 RES1    0.0000
     21 C11       -0.4946    4.3836   10.6130 C.3       1 RES1    0.0000
     22 C12        0.1898    3.2257   11.2950 C.3       1 RES1    0.0000
     23 C13        0.9433    2.4280   10.2698 C.2       1 RES1    0.0000
     24 C14        0.5109    0.9120    8.4981 C.3       1 RES1    0.0000
     25 C15       -0.6518    1.1482    7.6058 C.3       1 RES1    0.0000
     26 C16       -2.1051    2.8714    6.9066 C.3       1 RES1    0.0000
     27 C17       -2.0341    2.9934    5.4588 C.3       1 RES1    0.0000
     28 C18       -1.2654    4.4416    3.7750 C.3       1 RES1    0.0000
     29 C19       -2.5115    5.1600    3.3525 C.3       1 RES1    0.0000
     30 C20       -2.0284    7.2724    4.2748 C.2       1 RES1    0.0000
@<TRIPOS>BOND
     1    1    9 1
     2    2   10 1
     3    3   23 2
     4    4   23 1
     5    5   25 1
     6    6   27 1
     7    7   29 1
     8    8   30 2
     9    9   13 2
    10   10   20 2
    11   11    1 1
    12   12   11 1
    13   13   12 1
    14   14   13 1
    15   15   14 ar
    16   16   15 ar
    17   17   16 ar
    18   18   17 ar
    19   19   14 ar
    20   20   18 1
    21   21   20 1
    22   22    2 1
    23   23   22 1
    24   24    4 1
    25   25   24 1
    26   26    5 1
    27   27   26 1
    28   28    6 1
    29   29   28 1
    30   30    7 1
    31   11   30 1
    32   18   19 ar
    33   21   22 1
@<TRIPOS>SUBSTRUCTURE
     1 RES1 1

@<TRIPOS>CRYSIN
   9.5860   19.3620   21.4490  90.0000  90.0000  90.0000  61 1

