# MOL2 file generated by ConQuest
# Please check atom types

@<TRIPOS>MOLECULE
ZAGGET
    52    58     1
SMALL
NO_CHARGES
****
Generated from CSD

@<TRIPOS>ATOM
      1 O1         1.5835    3.8069    3.7875 O.3       1 RES1    0.0000
      2 O2        11.1304    5.2487    2.1299 O.3       1 RES1    0.0000
      3 O3        12.3450    3.3041    1.9631 O.3       1 RES1    0.0000
      4 O4        15.3838    3.6081    0.0734 O.3       1 RES1    0.0000
      5 O5        17.8873    4.8373    0.5159 O.3       1 RES1    0.0000
      6 O6         1.6673    3.9182    6.0979 O.3       1 RES1    0.0000
      7 N1         2.8573    4.1686    3.2806 N.2       1 RES1    0.0000
      8 N2         9.7245    5.1742    2.1009 N.2       1 RES1    0.0000
      9 C1         1.7835    3.0695    5.0016 C.3       1 RES1    0.0000
     10 C2         3.1897    2.5697    4.9019 C.3       1 RES1    0.0000
     11 C3         3.7489    3.4849    3.8863 C.2       1 RES1    0.0000
     12 C4         5.1648    3.6389    3.5563 C.ar      1 RES1    0.0000
     13 C5         6.1198    2.8539    4.1964 C.ar      1 RES1    0.0000
     14 C6         7.4894    2.9722    3.9425 C.ar      1 RES1    0.0000
     15 C7         7.8794    3.9311    3.0403 C.ar      1 RES1    0.0000
     16 C8         6.9416    4.7111    2.3630 C.ar      1 RES1    0.0000
     17 C9         5.6255    4.5621    2.6096 C.ar      1 RES1    0.0000
     18 C10        9.3808    4.1904    2.8018 C.2       1 RES1    0.0000
     19 C11       10.4614    3.4144    3.4184 C.3       1 RES1    0.0000
     20 C12       11.6667    4.1298    2.8263 C.3       1 RES1    0.0000
     21 C13       13.5306    3.9291    1.4354 C.3       1 RES1    0.0000
     22 C14       14.2989    2.9732    0.6973 C.3       1 RES1    0.0000
     23 C15       16.5623    2.8211    0.0417 C.3       1 RES1    0.0000
     24 C16       17.6801    3.6846   -0.3273 C.3       1 RES1    0.0000
     25 C17       18.4462    4.5064    1.7473 C.3       1 RES1    0.0000
     26 C18        0.3324    4.2600    6.4207 C.3       1 RES1    0.0000
     27 C18B      18.4111    5.6770    2.6468 C.3       1 RES1    0.0000
     28 C17B       0.2973    5.4306    7.3202 C.3       1 RES1    0.0000
     29 O6B       17.0761    6.0188    2.9696 O.3       1 RES1    0.0000
     30 O5B        0.8561    5.0997    8.5515 O.3       1 RES1    0.0000
     31 C1B       16.9600    6.8675    4.0659 C.3       1 RES1    0.0000
     32 C16B       1.0633    6.2524    9.3948 C.3       1 RES1    0.0000
     33 O1B       17.1599    6.1301    5.2800 O.3       1 RES1    0.0000
     34 C2B       15.5538    7.3673    4.1656 C.3       1 RES1    0.0000
     35 C15B       2.1812    7.1159    9.0258 C.3       1 RES1    0.0000
     36 N1B       15.8861    5.7684    5.7869 N.2       1 RES1    0.0000
     37 C3B       14.9946    6.4521    5.1812 C.2       1 RES1    0.0000
     38 O4B        3.3596    6.3289    8.9940 O.3       1 RES1    0.0000
     39 C4B       13.5786    6.2981    5.5112 C.ar      1 RES1    0.0000
     40 C14B       4.4445    6.9638    8.3702 C.3       1 RES1    0.0000
     41 C5B       12.6236    7.0831    4.8710 C.ar      1 RES1    0.0000
     42 C9B       13.1179    5.3749    6.4579 C.ar      1 RES1    0.0000
     43 C13B       5.2129    6.0079    7.6321 C.3       1 RES1    0.0000
     44 C6B       11.2540    6.9648    5.1249 C.ar      1 RES1    0.0000
     45 C8B       11.8019    5.2259    6.7045 C.ar      1 RES1    0.0000
     46 O3B        6.3985    6.6329    7.1044 O.3       1 RES1    0.0000
     47 C7B       10.8641    6.0059    6.0272 C.ar      1 RES1    0.0000
     48 C12B       7.0767    5.8072    6.2411 C.3       1 RES1    0.0000
     49 C10B       9.3627    5.7466    6.2656 C.2       1 RES1    0.0000
     50 O2B        7.6131    4.6883    6.9375 O.3       1 RES1    0.0000
     51 C11B       8.2820    6.5226    5.6490 C.3       1 RES1    0.0000
     52 N2B        9.0189    4.7628    6.9665 N.2       1 RES1    0.0000
@<TRIPOS>BOND
     1    1    7 1
     2    2    8 1
     3    3   20 1
     4    4   22 1
     5    5   24 1
     6    6    9 1
     7    7   11 2
     8    8   18 2
     9    9    1 1
    10   10    9 1
    11   11   10 1
    12   12   11 1
    13   13   12 ar
    14   14   13 ar
    15   15   14 ar
    16   16   15 ar
    17   17   12 ar
    18   18   15 1
    19   19   18 1
    20   20    2 1
    21   21    3 1
    22   22   21 1
    23   23    4 1
    24   24   23 1
    25   25    5 1
    26   26    6 1
    27   27   25 1
    28   28   26 1
    29   29   27 1
    30   30   28 1
    31   31   29 1
    32   32   30 1
    33   33   31 1
    34   34   31 1
    35   35   32 1
    36   36   33 1
    37   37   34 1
    38   38   35 1
    39   39   37 1
    40   40   38 1
    41   41   39 ar
    42   42   39 ar
    43   43   40 1
    44   44   41 ar
    45   45   42 ar
    46   46   43 1
    47   47   44 ar
    48   48   46 1
    49   49   47 1
    50   50   48 1
    51   51   48 1
    52   52   49 2
    53   16   17 ar
    54   19   20 1
    55   36   37 2
    56   45   47 ar
    57   49   51 1
    58   50   52 1
@<TRIPOS>SUBSTRUCTURE
     1 RES1 1

@<TRIPOS>CRYSIN
  19.5910    9.9370    9.1070  90.0000  95.3400  90.0000  14 1

