# MOL2 file generated by ConQuest
# Please check atom types

@<TRIPOS>MOLECULE
ZAKWIU
    36    37     1
SMALL
NO_CHARGES
****
Generated from CSD

@<TRIPOS>ATOM
      1 O1         6.7101    0.5580   13.4195 O.3       1 RES1    0.0000
      2 C1         7.8097    0.2338   14.2104 C.2       1 RES1    0.0000
      3 C2         8.5612    1.1546   14.7953 C.2       1 RES1    0.0000
      4 C3         8.2936    2.6478   14.6566 C.3       1 RES1    0.0000
      5 H1         9.0744    3.0582   14.2304 H         1 RES1    0.0000
      6 C4         7.0958    2.8777   13.7631 C.2       1 RES1    0.0000
      7 C5         6.3858    1.8755   13.2267 C.2       1 RES1    0.0000
      8 C6         9.7311    0.7510   15.6104 C.2       1 RES1    0.0000
      9 O2         9.9612   -0.3435   16.0611 O.2       1 RES1    0.0000
     10 O3        10.5419    1.8056   15.8188 O.3       1 RES1    0.0000
     11 C7        11.6942    1.5582   16.6505 C.3       1 RES1    0.0000
     12 H2        12.2021    2.3674   16.7422 H         1 RES1    0.0000
     13 H3        12.2406    0.8810   16.2453 H         1 RES1    0.0000
     14 H4        11.4052    1.2603   17.5160 H         1 RES1    0.0000
     15 C8         8.0984    3.3036   16.0151 C.ar      1 RES1    0.0000
     16 C9         8.9168    4.2904   16.5610 C.ar      1 RES1    0.0000
     17 C10        8.7716    4.7774   17.8483 C.ar      1 RES1    0.0000
     18 H5         9.3717    5.4022   18.1860 H         1 RES1    0.0000
     19 C11        7.7336    4.3263   18.6209 C.ar      1 RES1    0.0000
     20 H6         7.6149    4.6571   19.4815 H         1 RES1    0.0000
     21 C12        6.8730    3.3900   18.1190 C.ar      1 RES1    0.0000
     22 H7         6.1595    3.0921   18.6360 H         1 RES1    0.0000
     23 C13        7.0596    2.8787   16.8369 C.ar      1 RES1    0.0000
     24 H8         6.4700    2.2325   16.5197 H         1 RES1    0.0000
     25 N1        10.0053    4.8764   15.7578 N.pl3     1 RES1    0.0000
     26 O4         9.7732    5.1917   14.6049 O.2       1 RES1    0.0000
     27 O5        11.0941    5.0471   16.3118 O.2       1 RES1    0.0000
     28 C14        7.9517   -1.2555   14.1903 C.3       1 RES1    0.0000
     29 H9         7.2373   -1.6387   13.6766 H         1 RES1    0.0000
     30 H10        7.9172   -1.5921   15.0883 H         1 RES1    0.0000
     31 H11        8.7929   -1.4912   13.7928 H         1 RES1    0.0000
     32 N2         5.3256    1.9696   12.4091 N.3       1 RES1    0.0000
     33 H12        5.0306    2.7428   12.1735 H         1 RES1    0.0000
     34 H13        4.9417    1.2564   12.1191 H         1 RES1    0.0000
     35 C15        6.6903    4.2137   13.5095 C.1       1 RES1    0.0000
     36 N3         6.3677    5.2945   13.3095 N.1       1 RES1    0.0000
@<TRIPOS>BOND
     1    1    2 1
     2    2    3 2
     3    3    4 1
     4    4    5 1
     5    6    4 1
     6    7    1 1
     7    8    3 1
     8    9    8 2
     9   10    8 1
    10   11   10 1
    11   12   11 1
    12   13   11 1
    13   14   11 1
    14   15    4 1
    15   16   15 ar
    16   17   16 ar
    17   18   17 1
    18   19   17 ar
    19   20   19 1
    20   21   19 ar
    21   22   21 1
    22   23   15 ar
    23   24   23 1
    24   25   16 1
    25   26   25 2
    26   27   25 2
    27   28    2 1
    28   29   28 1
    29   30   28 1
    30   31   28 1
    31   32    7 1
    32   33   32 1
    33   34   32 1
    34   35    6 1
    35   36   35 3
    36    6    7 2
    37   21   23 ar
@<TRIPOS>SUBSTRUCTURE
     1 RES1 1

@<TRIPOS>CRYSIN
  12.3069    9.7023   24.8120  90.0000  94.8620  90.0000  15 1

