# MOL2 file generated by ConQuest
# Please check atom types

@<TRIPOS>MOLECULE
ZALVEQ
    23    24     1
SMALL
NO_CHARGES
****
Generated from CSD

@<TRIPOS>ATOM
      1 O1        10.1755    4.1542    1.7945 O.2       1 RES1    0.0000
      2 O2         8.6381    5.6792    1.7945 O.2       1 RES1    0.0000
      3 O3         4.3393    2.9988    1.7945 O.3       1 RES1    0.0000
      4 O4         4.9491    0.7527    1.7945 O.3       1 RES1    0.0000
      5 N1         8.9949    4.5018    1.7945 N.pl3     1 RES1    0.0000
      6 C1         7.9581    3.4703    1.7945 C.ar      1 RES1    0.0000
      7 C2         6.6191    3.8867    1.7945 C.ar      1 RES1    0.0000
      8 H1         6.3768    4.7851    1.7945 H         1 RES1    0.0000
      9 C3         5.6944    2.8788    1.7945 C.ar      1 RES1    0.0000
     10 C4         6.0601    1.5312    1.7945 C.ar      1 RES1    0.0000
     11 C5         7.3775    1.1328    1.7945 C.ar      1 RES1    0.0000
     12 H2         7.6124    0.2330    1.7945 H         1 RES1    0.0000
     13 C6         8.3444    2.1373    1.7945 C.ar      1 RES1    0.0000
     14 H3         9.2472    1.9140    1.7945 H         1 RES1    0.0000
     15 C7         3.7863    1.6466    1.7945 C.3       1 RES1    0.0000
     16 C8         3.0062    1.4375    0.5294 C.3       1 RES1    0.0000
     17 H4         3.5814    1.5731   -0.2275 H         1 RES1    0.0000
     18 H5         2.2792    2.0628    0.4946 H         1 RES1    0.0000
     19 H6         2.6596    0.5424    0.5118 H         1 RES1    0.0000
     20 C8E        3.0062    1.4375    3.0596 C.3       1 RES1    0.0000
     21 H4E        3.5814    1.5731    3.8165 H         1 RES1    0.0000
     22 H5E        2.2792    2.0628    3.0944 H         1 RES1    0.0000
     23 H6E        2.6596    0.5424    3.0772 H         1 RES1    0.0000
@<TRIPOS>BOND
     1    1    5 2
     2    2    5 2
     3    3    9 1
     4    4   10 1
     5    5    6 1
     6    6    7 ar
     7    7    8 1
     8    9    7 ar
     9   10    9 ar
    10   11   10 ar
    11   12   11 1
    12   13    6 ar
    13   14   13 1
    14   15    3 1
    15   16   15 1
    16   17   16 1
    17   18   16 1
    18   19   16 1
    19   20   15 1
    20   21   20 1
    21   22   20 1
    22   23   20 1
    23    4   15 1
    24   11   13 ar
@<TRIPOS>SUBSTRUCTURE
     1 RES1 1

@<TRIPOS>CRYSIN
   9.3680   13.1640    7.1780  90.0000  90.0000  90.0000  57 1

