# MOL2 file generated by ConQuest
# Please check atom types

@<TRIPOS>MOLECULE
ZAMKIH
    47    50     1
SMALL
NO_CHARGES
****
Generated from CSD

@<TRIPOS>ATOM
      1 C1         4.4231    4.7800    5.9115 C.ar      1 RES1    0.0000
      2 C2         3.6716    5.6797    6.6612 C.ar      1 RES1    0.0000
      3 C3         3.5158    6.9901    6.2255 C.ar      1 RES1    0.0000
      4 C4         4.0549    7.3772    5.0244 C.ar      1 RES1    0.0000
      5 C5         4.8083    6.4671    4.2825 C.ar      1 RES1    0.0000
      6 C6         5.4645    6.9778    3.0735 C.2       1 RES1    0.0000
      7 C7         6.4161    6.0611    2.4101 C.2       1 RES1    0.0000
      8 C8         6.0054    4.6063    2.4533 C.3       1 RES1    0.0000
      9 C9         5.9289    4.2060    3.9489 C.3       1 RES1    0.0000
     10 C10        5.0387    5.1538    4.7221 C.ar      1 RES1    0.0000
     11 C11        5.5154    2.7256    4.1490 C.3       1 RES1    0.0000
     12 C12        6.3736    1.7768    3.2776 C.3       1 RES1    0.0000
     13 C13        6.3104    2.1554    1.8135 C.3       1 RES1    0.0000
     14 C14        6.8391    3.5980    1.6486 C.3       1 RES1    0.0000
     15 C15        6.9684    3.7490    0.1374 C.3       1 RES1    0.0000
     16 C16        7.5207    2.3574   -0.2865 C.3       1 RES1    0.0000
     17 C17        7.3602    1.4700    0.9342 C.3       1 RES1    0.0000
     18 C18        4.9093    1.9127    1.2443 C.3       1 RES1    0.0000
     19 C19        2.8597    9.1974    6.8104 C.3       1 RES1    0.0000
     20 N1         7.4688    6.6757    1.9941 N.2       1 RES1    0.0000
     21 O1         2.7964    7.8105    7.0420 O.3       1 RES1    0.0000
     22 O2         7.0543    0.1293    0.5260 O.3       1 RES1    0.0000
     23 O3         8.4931    5.8846    1.5583 O.3       1 RES1    0.0000
     24 O4         5.2596    8.1108    2.6535 O.2       1 RES1    0.0000
     25 H1         4.5317    3.7670    6.2805 H         1 RES1    0.0000
     26 H2         3.2099    5.3530    7.5758 H         1 RES1    0.0000
     27 H3         3.8991    8.3836    4.6711 H         1 RES1    0.0000
     28 H4         5.0509    4.5411    1.9627 H         1 RES1    0.0000
     29 H5         6.9203    4.2957    4.3571 H         1 RES1    0.0000
     30 H6         4.4750    2.6152    3.8860 H         1 RES1    0.0000
     31 H7         5.6457    2.4547    5.1814 H         1 RES1    0.0000
     32 H8         6.0045    0.7647    3.3758 H         1 RES1    0.0000
     33 H9         7.4017    1.8221    3.6113 H         1 RES1    0.0000
     34 H10        7.8077    3.8142    2.0804 H         1 RES1    0.0000
     35 H11        6.0045    3.9369   -0.3140 H         1 RES1    0.0000
     36 H12        7.6472    4.5411   -0.1178 H         1 RES1    0.0000
     37 H13        8.5630    2.4452   -0.5495 H         1 RES1    0.0000
     38 H14        6.9580    1.9637   -1.1383 H         1 RES1    0.0000
     39 H15        8.2703    1.3595    1.5309 H         1 RES1    0.0000
     40 H16        4.1729    2.3980    1.8841 H         1 RES1    0.0000
     41 H17        4.7111    0.8497    1.2168 H         1 RES1    0.0000
     42 H18        4.8527    2.3130    0.2355 H         1 RES1    0.0000
     43 H19        2.2470    9.7148    7.5366 H         1 RES1    0.0000
     44 H20        2.4924    9.4032    5.8094 H         1 RES1    0.0000
     45 H21        3.8803    9.5354    6.9085 H         1 RES1    0.0000
     46 H22        6.6087   -0.1039   -0.0393 H         1 RES1    0.0000
     47 H23        8.8179    5.4663    0.6673 H         1 RES1    0.0000
@<TRIPOS>BOND
     1    1    2 ar
     2    2    3 ar
     3    3    4 ar
     4    4    5 ar
     5    5    6 1
     6    6    7 1
     7    7    8 1
     8    8    9 1
     9    9   10 1
    10   10    1 ar
    11   11    9 1
    12   12   11 1
    13   13   12 1
    14   14    8 1
    15   15   14 1
    16   16   15 1
    17   17   13 1
    18   18   13 1
    19   19   21 1
    20   20    7 2
    21   21    3 1
    22   22   17 1
    23   23   20 1
    24   24    6 2
    25   25    1 1
    26   26    2 1
    27   27    4 1
    28   28    8 1
    29   29    9 1
    30   30   11 1
    31   31   11 1
    32   32   12 1
    33   33   12 1
    34   34   14 1
    35   35   15 1
    36   36   15 1
    37   37   16 1
    38   38   16 1
    39   39   17 1
    40   40   18 1
    41   41   18 1
    42   42   18 1
    43   43   19 1
    44   44   19 1
    45   45   19 1
    46   46   22 1
    47   47   23 1
    48    5   10 ar
    49   13   14 1
    50   16   17 1
@<TRIPOS>SUBSTRUCTURE
     1 RES1 1

@<TRIPOS>CRYSIN
   9.4410    9.4410   39.2530  90.0000  90.0000  90.0000  92 1

