# MOL2 file generated by ConQuest
# Please check atom types

@<TRIPOS>MOLECULE
ZAMLII
    29    30     1
SMALL
USER_CHARGES
****
Generated from CSD

@<TRIPOS>ATOM
      1 N1         6.1287    2.5079   11.9110 N.pl3     1 RES1    1.0000
      2 O1         5.9267    2.4552   13.2027 O.2       1 RES1   -1.0000
      3 C1         5.6272    1.5275   11.0944 C.ar      1 RES1    0.0000
      4 C2         5.8435    1.5996    9.7192 C.ar      1 RES1    0.0000
      5 C3         5.3181    0.5247    8.8126 C.3       1 RES1    0.0000
      6 H1         5.5555    0.7208    7.9243 H         1 RES1    0.0000
      7 H2         4.3845    0.3720    8.8828 H         1 RES1    0.0000
      8 H3         5.7014   -0.3332    9.1123 H         1 RES1    0.0000
      9 C4         6.5598    2.6714    9.2013 C.ar      1 RES1    0.0000
     10 H4         6.6979    2.7203    8.2483 H         1 RES1    0.0000
     11 C5         7.0580    3.6348   10.0494 C.ar      1 RES1    0.0000
     12 H5         7.5627    4.4098    9.7468 H         1 RES1    0.0000
     13 C6         6.8454    3.5379   11.3985 C.ar      1 RES1    0.0000
     14 H6         7.1605    4.1230   12.0417 H         1 RES1    0.0000
     15 C7         4.9122    0.4077   11.7693 C.ar      1 RES1    0.0000
     16 C8         3.5186    0.3030   11.6973 C.ar      1 RES1    0.0000
     17 O2         2.8780    1.2826   10.9917 O.3       1 RES1    0.0000
     18 C9         1.5284    1.0137   10.6081 C.3       1 RES1    0.0000
     19 H7         1.2740    1.7593   10.0303 H         1 RES1    0.0000
     20 H8         0.9430    0.9688   11.4072 H         1 RES1    0.0000
     21 H9         1.4946    0.1318   10.1248 H         1 RES1    0.0000
     22 C10        2.8752   -0.7525   12.3197 C.ar      1 RES1    0.0000
     23 H10        1.9537   -0.8215   12.2712 H         1 RES1    0.0000
     24 C11        3.5972   -1.7065   12.9988 C.ar      1 RES1    0.0000
     25 H11        3.1246   -2.4645   13.4187 H         1 RES1    0.0000
     26 C12        4.9738   -1.6267   13.0747 C.ar      1 RES1    0.0000
     27 H12        5.4700   -2.2862   13.5132 H         1 RES1    0.0000
     28 C13        5.6195   -0.5688   12.4601 C.ar      1 RES1    0.0000
     29 H13        6.5875   -0.4727   12.5142 H         1 RES1    0.0000
@<TRIPOS>BOND
     1    1    2 1
     2    3    1 ar
     3    4    3 ar
     4    5    4 1
     5    6    5 1
     6    7    5 1
     7    8    5 1
     8    9    4 ar
     9   10    9 1
    10   11    9 ar
    11   12   11 1
    12   13    1 ar
    13   14   13 1
    14   15    3 1
    15   16   15 ar
    16   17   16 1
    17   18   17 1
    18   19   18 1
    19   20   18 1
    20   21   18 1
    21   22   16 ar
    22   23   22 1
    23   24   22 ar
    24   25   24 1
    25   26   24 ar
    26   27   26 1
    27   28   15 ar
    28   29   28 1
    29   11   13 ar
    30   26   28 ar
@<TRIPOS>SUBSTRUCTURE
     1 RES1 1

@<TRIPOS>CRYSIN
  10.6770    7.7500   13.9610  90.0000 104.7700  90.0000  14 1

