# MOL2 file generated by ConQuest
# Please check atom types

@<TRIPOS>MOLECULE
ZAMWEP
    24    25     1
SMALL
NO_CHARGES
****
Generated from CSD

@<TRIPOS>ATOM
      1 O1        -0.2208    0.7862    9.8019 O.2       1 RES1    0.0000
      2 O2         1.4517   -0.2595    8.9595 O.2       1 RES1    0.0000
      3 N1         0.1824    1.3859    5.4800 N.pl3     1 RES1    0.0000
      4 N2        -0.8752    1.8105    7.3763 N.2       1 RES1    0.0000
      5 N3         0.4942    0.4860    8.8604 N.pl3     1 RES1    0.0000
      6 C1        -0.8709    2.0316    6.0879 C.2       1 RES1    0.0000
      7 C2         0.1941    1.0104    7.5798 C.2       1 RES1    0.0000
      8 C3         0.8721    0.7379    6.4455 C.2       1 RES1    0.0000
      9 C4         0.5069    1.3252    4.0894 C.ar      1 RES1    0.0000
     10 C5        -0.4499    0.9682    3.1783 C.ar      1 RES1    0.0000
     11 C6        -0.1055    0.8860    1.8472 C.ar      1 RES1    0.0000
     12 C7         1.1779    1.1348    1.4444 C.ar      1 RES1    0.0000
     13 C8         2.1271    1.4819    2.3621 C.ar      1 RES1    0.0000
     14 C9         1.8015    1.5863    3.6936 C.ar      1 RES1    0.0000
     15 C10       -1.8496    2.8723    5.3763 C.3       1 RES1    0.0000
     16 H1         1.6409    0.2373    6.2968 H         1 RES1    0.0000
     17 H2        -1.3780    0.8146    3.4703 H         1 RES1    0.0000
     18 H3        -0.8711    0.6887    1.2213 H         1 RES1    0.0000
     19 H4         1.4437    1.0903    0.4398 H         1 RES1    0.0000
     20 H5         3.0114    1.6385    2.0752 H         1 RES1    0.0000
     21 H6         2.4658    1.8182    4.3666 H         1 RES1    0.0000
     22 H7        -2.6175    2.3495    5.1163 H         1 RES1    0.0000
     23 H8        -1.4672    3.2409    4.5616 H         1 RES1    0.0000
     24 H9        -2.0975    3.6424    5.9310 H         1 RES1    0.0000
@<TRIPOS>BOND
     1    1    5 2
     2    2    5 2
     3    3    6 1
     4    4    6 2
     5    5    7 1
     6    6   15 1
     7    7    4 1
     8    8    3 1
     9    9    3 1
    10   10    9 ar
    11   11   10 ar
    12   12   11 ar
    13   13   12 ar
    14   14    9 ar
    15   15   22 1
    16   16    8 1
    17   17   10 1
    18   18   11 1
    19   19   12 1
    20   20   13 1
    21   21   14 1
    22   23   15 1
    23   24   15 1
    24    7    8 2
    25   13   14 ar
@<TRIPOS>SUBSTRUCTURE
     1 RES1 1

@<TRIPOS>CRYSIN
   8.2340    7.6780   15.3450  90.0000  99.9400  90.0000 231 1

