# MOL2 file generated by ConQuest
# Please check atom types

@<TRIPOS>MOLECULE
ZAPDUR
    33    34     1
SMALL
NO_CHARGES
****
Generated from CSD

@<TRIPOS>ATOM
      1 O1         0.8673    7.6653    6.1986 O.2       1 RES1    0.0000
      2 O2        -0.2338    3.2097    2.1306 O.2       1 RES1    0.0000
      3 O3        -0.0496    1.1010    1.6743 O.2       1 RES1    0.0000
      4 N1         2.6675   10.6061   11.6254 N.pl3     1 RES1    0.0000
      5 H1         2.5858   11.4720   11.4366 H         1 RES1    0.0000
      6 H2         3.3607   10.3790   12.1349 H         1 RES1    0.0000
      7 N2         1.4190    5.8847    7.4969 N.am      1 RES1    0.0000
      8 H3         1.6043    5.6122    8.2908 H         1 RES1    0.0000
      9 N3         1.2518    4.9623    6.4862 N.2       1 RES1    0.0000
     10 N4         0.1205    2.0678    2.4164 N.pl3     1 RES1    0.0000
     11 C1         2.3882    9.7913   10.5410 C.ar      1 RES1    0.0000
     12 C2         1.6652   10.2721    9.4390 C.ar      1 RES1    0.0000
     13 H4         1.4081   11.1653    9.4110 H         1 RES1    0.0000
     14 C3         1.3324    9.4304    8.3953 C.ar      1 RES1    0.0000
     15 H5         0.8469    9.7656    7.6764 H         1 RES1    0.0000
     16 C4         1.7110    8.0847    8.3981 C.ar      1 RES1    0.0000
     17 C5         2.4708    7.6250    9.4849 C.ar      1 RES1    0.0000
     18 H6         2.7625    6.7420    9.4948 H         1 RES1    0.0000
     19 C6         2.7939    8.4550   10.5383 C.ar      1 RES1    0.0000
     20 H7         3.2866    8.1216   11.2529 H         1 RES1    0.0000
     21 C7         1.2971    7.2183    7.2586 C.2       1 RES1    0.0000
     22 C8         1.4881    3.7484    6.8268 C.2       1 RES1    0.0000
     23 H8         1.7226    3.5545    7.7058 H         1 RES1    0.0000
     24 C9         1.3936    2.6687    5.8514 C.ar      1 RES1    0.0000
     25 C10        0.8633    2.8874    4.5863 C.ar      1 RES1    0.0000
     26 H9         0.5777    3.7363    4.3350 H         1 RES1    0.0000
     27 C11        0.7644    1.8315    3.7118 C.ar      1 RES1    0.0000
     28 C12        1.2067    0.5546    4.0171 C.ar      1 RES1    0.0000
     29 H10        1.1407   -0.1372    3.3986 H         1 RES1    0.0000
     30 C13        1.7530    0.3422    5.2761 C.ar      1 RES1    0.0000
     31 H11        2.0660   -0.5019    5.5096 H         1 RES1    0.0000
     32 C14        1.8324    1.3841    6.1868 C.ar      1 RES1    0.0000
     33 H12        2.1832    1.2268    7.0340 H         1 RES1    0.0000
@<TRIPOS>BOND
     1    1   21 2
     2    2   10 2
     3    3   10 2
     4    4    5 1
     5    6    4 1
     6    7    8 1
     7    9    7 1
     8   10   27 1
     9   11    4 1
    10   12   11 ar
    11   13   12 1
    12   14   12 ar
    13   15   14 1
    14   16   14 ar
    15   17   16 ar
    16   18   17 1
    17   19   11 ar
    18   20   19 1
    19   21    7 1
    20   22    9 2
    21   23   22 1
    22   24   22 1
    23   25   24 ar
    24   26   25 1
    25   27   25 ar
    26   28   27 ar
    27   29   28 1
    28   30   28 ar
    29   31   30 1
    30   32   24 ar
    31   33   32 1
    32   16   21 1
    33   17   19 ar
    34   30   32 ar
@<TRIPOS>SUBSTRUCTURE
     1 RES1 1

@<TRIPOS>CRYSIN
   7.8909   11.1530   14.7090  90.0000  92.0000  90.0000 231 1

