# MOL2 file generated by ConQuest
# Please check atom types

@<TRIPOS>MOLECULE
ZAPTOB
    43    44     1
SMALL
USER_CHARGES
****
Generated from CSD

@<TRIPOS>ATOM
      1 O1         2.1179    2.8928    4.6463 O.2       1 RES1   -1.0000
      2 O2         7.2901    3.6740    1.2379 O.2       1 RES1    0.0000
      3 O3         5.8153    3.3637   -0.3218 O.2       1 RES1    0.0000
      4 O4         7.1987   -0.0725   10.7406 O.2       1 RES1   -1.0000
      5 O5        11.1875   -0.3034    5.9848 O.2       1 RES1    0.0000
      6 O6        12.5604   -0.3467    7.6501 O.2       1 RES1    0.0000
      7 N1         6.1310    3.4589    0.8659 N.pl3     1 RES1    0.0000
      8 N2         3.9338    2.9684    6.4818 N.pl3     1 RES1    1.0000
      9 H1         5.6808    0.1669    9.5695 H         1 RES1    0.0000
     10 N3         5.5764    0.2168    8.6751 N.pl3     1 RES1    1.0000
     11 H2         3.0776    2.8726    6.1291 H         1 RES1    0.0000
     12 N4        11.4100   -0.3153    7.1976 N.pl3     1 RES1    0.0000
     13 C1         3.0456    3.0415    3.7811 C.ar      1 RES1    0.0000
     14 C2         2.7732    3.0597    2.3818 C.ar      1 RES1    0.0000
     15 H3         1.8732    2.9860    2.0871 H         1 RES1    0.0000
     16 C3         3.7601    3.1791    1.4575 C.ar      1 RES1    0.0000
     17 H4         3.5461    3.1725    0.5311 H         1 RES1    0.0000
     18 C4         5.0980    3.3125    1.8676 C.ar      1 RES1    0.0000
     19 C5         5.4305    3.3065    3.1935 C.ar      1 RES1    0.0000
     20 H5         6.3391    3.4006    3.4536 H         1 RES1    0.0000
     21 C6         4.4341    3.1624    4.1687 C.ar      1 RES1    0.0000
     22 C7         4.8068    3.1147    5.5405 C.2       1 RES1    0.0000
     23 H6         5.7247    3.1933    5.7721 H         1 RES1    0.0000
     24 C8         4.2348    2.9085    7.9051 C.3       1 RES1    0.0000
     25 H7         3.8932    3.7266    8.3463 H         1 RES1    0.0000
     26 H8         5.2157    2.8791    8.0311 H         1 RES1    0.0000
     27 C9         3.6065    1.6865    8.5530 C.3       1 RES1    0.0000
     28 H9         2.6437    1.6690    8.3242 H         1 RES1    0.0000
     29 H10        3.6780    1.7786    9.5364 H         1 RES1    0.0000
     30 C10        4.2268    0.3574    8.1442 C.3       1 RES1    0.0000
     31 H11        3.6630   -0.3847    8.4785 H         1 RES1    0.0000
     32 H12        4.2554    0.2986    7.1562 H         1 RES1    0.0000
     33 C11        6.6459    0.0970    7.9584 C.2       1 RES1    0.0000
     34 H13        6.5543    0.1278    7.0129 H         1 RES1    0.0000
     35 C12        7.9487   -0.0778    8.4948 C.ar      1 RES1    0.0000
     36 C13        8.1568   -0.1390    9.9278 C.ar      1 RES1    0.0000
     37 C14        9.5179   -0.2998   10.3695 C.ar      1 RES1    0.0000
     38 H14        9.6978   -0.3612   11.2995 H         1 RES1    0.0000
     39 C15       10.5482   -0.3664    9.4943 C.ar      1 RES1    0.0000
     40 H15       11.4367   -0.4668    9.8141 H         1 RES1    0.0000
     41 C16       10.3056   -0.2862    8.1034 C.ar      1 RES1    0.0000
     42 C17        9.0277   -0.1524    7.6137 C.ar      1 RES1    0.0000
     43 H16        8.8798   -0.1108    6.6757 H         1 RES1    0.0000
@<TRIPOS>BOND
     1    1   13 1
     2    2    7 2
     3    3    7 2
     4    4   36 1
     5    5   12 2
     6    6   12 2
     7    7   18 1
     8    8   11 1
     9    9   10 1
    10   10   30 1
    11   12   41 1
    12   13   14 ar
    13   14   15 1
    14   16   14 ar
    15   17   16 1
    16   18   16 ar
    17   19   18 ar
    18   20   19 1
    19   21   13 ar
    20   22    8 2
    21   23   22 1
    22   24    8 1
    23   25   24 1
    24   26   24 1
    25   27   24 1
    26   28   27 1
    27   29   27 1
    28   30   27 1
    29   31   30 1
    30   32   30 1
    31   33   10 2
    32   34   33 1
    33   35   33 1
    34   36   35 ar
    35   37   36 ar
    36   38   37 1
    37   39   37 ar
    38   40   39 1
    39   41   39 ar
    40   42   35 ar
    41   43   42 1
    42   19   21 ar
    43   21   22 1
    44   41   42 ar
@<TRIPOS>SUBSTRUCTURE
     1 RES1 1

@<TRIPOS>CRYSIN
  11.5698   13.0393   22.0393  90.0000  90.0000  90.0000  61 1

