# MOL2 file generated by ConQuest
# Please check atom types

@<TRIPOS>MOLECULE
ZAQQUG
    67    69     1
SMALL
NO_CHARGES
****
Generated from CSD

@<TRIPOS>ATOM
      1 C1         7.2551    0.9371    8.9834 C.ar      1 RES1    0.0000
      2 H1         7.6546    1.7079    8.6491 H         1 RES1    0.0000
      3 C2         6.3103    0.2618    8.2238 C.ar      1 RES1    0.0000
      4 H2         6.0756    0.5819    7.3839 H         1 RES1    0.0000
      5 C3         5.7313   -0.8573    8.7037 C.ar      1 RES1    0.0000
      6 H3         5.1064   -1.3138    8.1883 H         1 RES1    0.0000
      7 C4         6.0626   -1.3157    9.9252 C.ar      1 RES1    0.0000
      8 H4         5.6533   -2.0835   10.2524 H         1 RES1    0.0000
      9 C5         6.9927   -0.6666   10.6901 C.ar      1 RES1    0.0000
     10 H5         7.2146   -0.9994   11.5285 H         1 RES1    0.0000
     11 C6         7.6026    0.4749   10.2252 C.ar      1 RES1    0.0000
     12 C7         8.6532    1.1425   11.0552 C.3       1 RES1    0.0000
     13 H6         8.3842    1.1259   11.9866 H         1 RES1    0.0000
     14 H7         8.7343    2.0709   10.7842 H         1 RES1    0.0000
     15 C8        10.0194    0.4476   10.9058 C.3       1 RES1    0.0000
     16 H8         9.8600   -0.5187   10.9341 H         1 RES1    0.0000
     17 N1        10.9479    0.7727   11.9986 N.am      1 RES1    0.0000
     18 C9        11.5608    2.0222   11.9924 C.2       1 RES1    0.0000
     19 O1        12.0459    2.5808   12.9475 O.2       1 RES1    0.0000
     20 N2        11.4385    2.6518   10.7779 N.am      1 RES1    0.0000
     21 C10       12.1709    3.8809   10.5137 C.3       1 RES1    0.0000
     22 H9        12.0697    4.4804   11.2559 H         1 RES1    0.0000
     23 H10       11.8265    4.2955    9.7180 H         1 RES1    0.0000
     24 H11       13.1011    3.6785   10.3915 H         1 RES1    0.0000
     25 O2        11.5406    1.8110    9.6174 O.3       1 RES1    0.0000
     26 C11       10.6943    0.7522    9.6070 C.2       1 RES1    0.0000
     27 O3        10.5900    0.1236    8.5987 O.2       1 RES1    0.0000
     28 C12       10.9597   -0.1090   13.0809 C.2       1 RES1    0.0000
     29 O4        10.1202   -0.9741   13.1395 O.2       1 RES1    0.0000
     30 C13       12.1066   -0.0380   14.0696 C.3       1 RES1    0.0000
     31 H12       12.1108    0.8544   14.4734 H         1 RES1    0.0000
     32 C14       13.4326   -0.2384   13.3178 C.3       1 RES1    0.0000
     33 H13       13.6749    0.5703   12.8401 H         1 RES1    0.0000
     34 H14       14.1438   -0.4545   13.9390 H         1 RES1    0.0000
     35 O5        13.2390   -1.2631   12.4447 O.3       1 RES1    0.0000
     36 C15       14.3578   -1.7721   11.7202 C.3       1 RES1    0.0000
     37 C16       15.0966   -0.6793   10.9887 C.3       1 RES1    0.0000
     38 H15       14.5194   -0.2890   10.3288 H         1 RES1    0.0000
     39 H16       15.8718   -1.0491   10.5578 H         1 RES1    0.0000
     40 H17       15.3700   -0.0039   11.6131 H         1 RES1    0.0000
     41 C17       13.7148   -2.6664   10.7078 C.3       1 RES1    0.0000
     42 H18       13.2338   -3.3671   11.1604 H         1 RES1    0.0000
     43 H19       14.3895   -3.0518   10.1461 H         1 RES1    0.0000
     44 H20       13.1023   -2.1555   10.1734 H         1 RES1    0.0000
     45 C18       15.2879   -2.4592   12.6410 C.3       1 RES1    0.0000
     46 H21       15.5167   -1.8714   13.3636 H         1 RES1    0.0000
     47 H22       16.0864   -2.7034   12.1639 H         1 RES1    0.0000
     48 H23       14.8702   -3.2493   12.9873 H         1 RES1    0.0000
     49 N3        11.8571   -1.0033   15.1076 N.am      1 RES1    0.0000
     50 H24       11.4203   -1.7205   14.9233 H         1 RES1    0.0000
     51 C19       12.2994   -0.7990   16.3616 C.2       1 RES1    0.0000
     52 O6        12.8580    0.1937   16.7439 O.2       1 RES1    0.0000
     53 O7        12.0159   -1.8665   17.1336 O.3       1 RES1    0.0000
     54 C20       12.4137   -1.7497   18.5294 C.3       1 RES1    0.0000
     55 H25       13.2524   -1.2661   18.5853 H         1 RES1    0.0000
     56 H26       12.5524   -2.6353   18.8989 H         1 RES1    0.0000
     57 C21       11.3762   -1.0345   19.3329 C.ar      1 RES1    0.0000
     58 C22       10.1695   -1.6174   19.5925 C.ar      1 RES1    0.0000
     59 H27       10.0050   -2.4737   19.2697 H         1 RES1    0.0000
     60 C23        9.1897   -0.9868   20.3127 C.ar      1 RES1    0.0000
     61 H28        8.3775   -1.4111   20.4694 H         1 RES1    0.0000
     62 C24        9.4086    0.2452   20.7896 C.ar      1 RES1    0.0000
     63 H29        8.7498    0.6744   21.2847 H         1 RES1    0.0000
     64 C25       10.5967    0.8700   20.5480 C.ar      1 RES1    0.0000
     65 H30       10.7425    1.7273   20.8784 H         1 RES1    0.0000
     66 C26       11.5908    0.2374   19.8150 C.ar      1 RES1    0.0000
     67 H31       12.3972    0.6705   19.6514 H         1 RES1    0.0000
@<TRIPOS>BOND
     1    1    2 1
     2    3    1 ar
     3    4    3 1
     4    5    3 ar
     5    6    5 1
     6    7    5 ar
     7    8    7 1
     8    9    7 ar
     9   10    9 1
    10   11    1 ar
    11   12   11 1
    12   13   12 1
    13   14   12 1
    14   15   12 1
    15   16   15 1
    16   17   15 1
    17   18   17 1
    18   19   18 2
    19   20   18 1
    20   21   20 1
    21   22   21 1
    22   23   21 1
    23   24   21 1
    24   25   20 1
    25   26   15 1
    26   27   26 2
    27   28   17 1
    28   29   28 2
    29   30   28 1
    30   31   30 1
    31   32   30 1
    32   33   32 1
    33   34   32 1
    34   35   32 1
    35   36   35 1
    36   37   36 1
    37   38   37 1
    38   39   37 1
    39   40   37 1
    40   41   36 1
    41   42   41 1
    42   43   41 1
    43   44   41 1
    44   45   36 1
    45   46   45 1
    46   47   45 1
    47   48   45 1
    48   49   30 1
    49   50   49 1
    50   51   49 1
    51   52   51 2
    52   53   51 1
    53   54   53 1
    54   55   54 1
    55   56   54 1
    56   57   54 1
    57   58   57 ar
    58   59   58 1
    59   60   58 ar
    60   61   60 1
    61   62   60 ar
    62   63   62 1
    63   64   62 ar
    64   65   64 1
    65   66   57 ar
    66   67   66 1
    67    9   11 ar
    68   25   26 1
    69   64   66 ar
@<TRIPOS>SUBSTRUCTURE
     1 RES1 1

@<TRIPOS>CRYSIN
  20.2258    9.7315   28.7120  90.0000 108.2540  90.0000  15 1

