# MOL2 file generated by ConQuest
# Please check atom types

@<TRIPOS>MOLECULE
ZAQTOC
    27    27     1
SMALL
NO_CHARGES
****
Generated from CSD

@<TRIPOS>ATOM
      1 O1         0.8172    7.6558   10.5269 O.3       1 RES1    0.0000
      2 C1         1.5082    6.9495   11.4645 C.ar      1 RES1    0.0000
      3 C2         0.9652    6.9681   12.7434 C.ar      1 RES1    0.0000
      4 H1         0.1904    7.4547   12.9081 H         1 RES1    0.0000
      5 C3         2.7196    5.5724   13.4933 C.ar      1 RES1    0.0000
      6 C4         1.3198    7.6397    9.2030 C.3       1 RES1    0.0000
      7 H2         1.3372    6.7315    8.8645 H         1 RES1    0.0000
      8 H3         2.2241    7.9903    9.1865 H         1 RES1    0.0000
      9 C5         3.2792    5.5606   12.2415 C.ar      1 RES1    0.0000
     10 H4         4.0653    5.0892   12.0872 H         1 RES1    0.0000
     11 O2         0.9487    8.5800    7.1448 O.3       1 RES1    0.0000
     12 C6         2.6746    6.2483   11.2146 C.ar      1 RES1    0.0000
     13 H5         3.0460    6.2424   10.3608 H         1 RES1    0.0000
     14 N1         3.3587    4.8045   14.5543 N.pl3     1 RES1    0.0000
     15 C7         1.5647    6.2719   13.7647 C.ar      1 RES1    0.0000
     16 H6         1.1986    6.2719   14.6200 H         1 RES1    0.0000
     17 O3         2.8719    4.8467   15.6725 O.2       1 RES1    0.0000
     18 O4         4.3396    4.1269   14.2977 O.2       1 RES1    0.0000
     19 C8         0.4234    8.4888    8.3524 C.2       1 RES1    0.0000
     20 O5        -0.5873    8.9847    8.6853 O.2       1 RES1    0.0000
     21 C9         0.2507    9.4104    6.1603 C.3       1 RES1    0.0000
     22 H7        -0.3962    8.8740    5.6756 H         1 RES1    0.0000
     23 H8        -0.2236   10.1269    6.6102 H         1 RES1    0.0000
     24 C10        1.1939    9.9511    5.2598 C.3       1 RES1    0.0000
     25 H9         0.7405   10.4884    4.6054 H         1 RES1    0.0000
     26 H10        1.6618    9.2381    4.8209 H         1 RES1    0.0000
     27 H11        1.8205   10.4960    5.7410 H         1 RES1    0.0000
@<TRIPOS>BOND
     1    1    2 1
     2    2    3 ar
     3    3    4 1
     4    5    9 ar
     5    6    1 1
     6    7    6 1
     7    8    6 1
     8    9   10 1
     9   11   19 1
    10   12    2 ar
    11   13   12 1
    12   14    5 1
    13   15    3 ar
    14   16   15 1
    15   17   14 2
    16   18   14 2
    17   19    6 1
    18   20   19 2
    19   21   11 1
    20   22   21 1
    21   23   21 1
    22   24   21 1
    23   25   24 1
    24   26   24 1
    25   27   24 1
    26    5   15 ar
    27    9   12 ar
@<TRIPOS>SUBSTRUCTURE
     1 RES1 1

@<TRIPOS>CRYSIN
   5.3848    8.4482   24.2380  90.0000  92.5900  90.0000  14 1

