# MOL2 file generated by ConQuest
# Please check atom types

@<TRIPOS>MOLECULE
ZARGIK
    29    30     1
SMALL
NO_CHARGES
****
Generated from CSD

@<TRIPOS>ATOM
      1 O1         6.8790    0.4151   12.1403 O.3       1 RES1    0.0000
      2 O2         6.8724   -1.2771   13.7424 O.3       1 RES1    0.0000
      3 O3         9.3838   -0.1856   13.9444 O.2       1 RES1    0.0000
      4 O4         8.5175    1.8611   13.9321 O.3       1 RES1    0.0000
      5 N1         5.4544    0.3542   11.8735 N.3       1 RES1    0.0000
      6 C1         1.0233   -1.0126   13.5184 C.ar      1 RES1    0.0000
      7 C2         2.1483   -1.6132   14.0096 C.ar      1 RES1    0.0000
      8 C3         3.3837   -0.9840   13.8935 C.ar      1 RES1    0.0000
      9 C4         3.4881    0.2465   13.2939 C.ar      1 RES1    0.0000
     10 C5         2.3378    0.8282   12.7942 C.ar      1 RES1    0.0000
     11 C6         1.1104    0.1899   12.9120 C.ar      1 RES1    0.0000
     12 C7         4.8189    0.9317   13.0870 C.3       1 RES1    0.0000
     13 C8         5.8750    0.8124   14.2067 C.3       1 RES1    0.0000
     14 C9         7.0217    0.0840   13.5327 C.3       1 RES1    0.0000
     15 C10        8.4519    0.5465   13.8397 C.2       1 RES1    0.0000
     16 C11        9.8232    2.4518   14.1151 C.3       1 RES1    0.0000
     17 H1         0.1977   -1.4325   13.6018 H         1 RES1    0.0000
     18 H2         2.0876   -2.4445   14.4227 H         1 RES1    0.0000
     19 H3         4.1463   -1.4008   14.2256 H         1 RES1    0.0000
     20 H4         5.2793   -0.5355   11.8404 H         1 RES1    0.0000
     21 H5         2.3865    1.6564   12.3743 H         1 RES1    0.0000
     22 H6         0.3443    0.5933   12.5713 H         1 RES1    0.0000
     23 H7         4.6521    1.8834   12.9221 H         1 RES1    0.0000
     24 H8         6.1530    1.6881   14.5189 H         1 RES1    0.0000
     25 H9         5.5318    0.3037   14.9581 H         1 RES1    0.0000
     26 H10        7.2017   -1.6881   13.1145 H         1 RES1    0.0000
     27 H11        9.7316    3.3999   14.2349 H         1 RES1    0.0000
     28 H12       10.3642    2.2783   13.3411 H         1 RES1    0.0000
     29 H13       10.2412    2.0702   14.8898 H         1 RES1    0.0000
@<TRIPOS>BOND
     1    1    5 1
     2    2   14 1
     3    3   15 2
     4    4   15 1
     5    5   12 1
     6    6    7 ar
     7    7    8 ar
     8    8    9 ar
     9    9   10 ar
    10   10   11 ar
    11   11    6 ar
    12   12    9 1
    13   13   12 1
    14   14    1 1
    15   15   14 1
    16   16    4 1
    17   17    6 1
    18   18    7 1
    19   19    8 1
    20   20    5 1
    21   21   10 1
    22   22   11 1
    23   23   12 1
    24   24   13 1
    25   25   13 1
    26   26    2 1
    27   27   16 1
    28   28   16 1
    29   29   16 1
    30   13   14 1
@<TRIPOS>SUBSTRUCTURE
     1 RES1 1

@<TRIPOS>CRYSIN
  11.8322    6.0853   15.8570  90.0000 101.8640  90.0000 231 1

