# MOL2 file generated by ConQuest
# Please check atom types

@<TRIPOS>MOLECULE
ZARJOU
    57    61     1
SMALL
NO_CHARGES
****
Generated from CSD

@<TRIPOS>ATOM
      1 O1         5.8989    4.4425    2.6086 O.3       1 RES1    0.0000
      2 O2         7.1860    2.0607    0.0536 O.2       1 RES1    0.0000
      3 O3         7.8133    4.1040    0.3829 O.2       1 RES1    0.0000
      4 O4        10.3122    2.0746    5.4300 O.2       1 RES1    0.0000
      5 O5         8.6783    1.0613    4.4540 O.2       1 RES1    0.0000
      6 N1         7.5266    2.9885    0.7879 N.pl3     1 RES1    0.0000
      7 N2         9.2689    2.0791    4.8043 N.pl3     1 RES1    0.0000
      8 C1         6.1489    3.0583    2.8553 C.3       1 RES1    0.0000
      9 C2         7.5606    2.7304    2.2812 C.3       1 RES1    0.0000
     10 H1         7.7671    1.7657    2.4453 H         1 RES1    0.0000
     11 C3         8.6550    3.5929    2.9066 C.3       1 RES1    0.0000
     12 H2         8.3976    4.5437    2.7333 H         1 RES1    0.0000
     13 C4         8.6750    3.4225    4.4341 C.3       1 RES1    0.0000
     14 H3         9.2855    4.1247    4.7998 H         1 RES1    0.0000
     15 C5         7.2984    3.6315    5.0939 C.3       1 RES1    0.0000
     16 H4         7.0844    4.6023    4.9865 H         1 RES1    0.0000
     17 C6         6.1649    2.8667    4.3982 C.3       1 RES1    0.0000
     18 H5         6.2987    1.8925    4.5816 H         1 RES1    0.0000
     19 C7         4.7775    3.2432    4.8928 C.ar      1 RES1    0.0000
     20 C8         4.4994    4.2381    5.8231 C.ar      1 RES1    0.0000
     21 H6         5.2106    4.7341    6.2118 H         1 RES1    0.0000
     22 C9         3.1870    4.5107    6.1874 C.ar      1 RES1    0.0000
     23 H7         3.0026    5.1989    6.8157 H         1 RES1    0.0000
     24 C10        2.1462    3.7823    5.6367 C.ar      1 RES1    0.0000
     25 H8         1.2512    3.9527    5.9064 H         1 RES1    0.0000
     26 C11        2.4110    2.8070    4.6947 C.ar      1 RES1    0.0000
     27 H9         1.6938    2.3143    4.3128 H         1 RES1    0.0000
     28 C12        3.7191    2.5394    4.3015 C.ar      1 RES1    0.0000
     29 C13        4.0748    1.5535    3.2352 C.3       1 RES1    0.0000
     30 H10        3.2530    1.2758    2.7594 H         1 RES1    0.0000
     31 H11        4.4712    0.7485    3.6531 H         1 RES1    0.0000
     32 C14        5.0731    2.1422    2.2231 C.3       1 RES1    0.0000
     33 H12        4.5709    2.6623    1.5464 H         1 RES1    0.0000
     34 H13        5.5259    1.3982    1.7524 H         1 RES1    0.0000
     35 C15       10.0536    3.4136    2.3289 C.ar      1 RES1    0.0000
     36 C16       10.4496    2.2802    1.6274 C.ar      1 RES1    0.0000
     37 H14        9.8354    1.5691    1.4906 H         1 RES1    0.0000
     38 C17       11.7492    2.1841    1.1216 C.ar      1 RES1    0.0000
     39 H15       12.0078    1.4149    0.6266 H         1 RES1    0.0000
     40 C18       12.6564    3.1991    1.3366 C.ar      1 RES1    0.0000
     41 H16       13.5396    3.1287    0.9931 H         1 RES1    0.0000
     42 C19       12.2773    4.3247    2.0566 C.ar      1 RES1    0.0000
     43 H17       12.9044    5.0213    2.2131 H         1 RES1    0.0000
     44 C20       10.9839    4.4325    2.5476 C.ar      1 RES1    0.0000
     45 H18       10.7289    5.2056    3.0370 H         1 RES1    0.0000
     46 C21        7.4086    3.3874    6.5933 C.ar      1 RES1    0.0000
     47 C22        8.0483    4.3386    7.3850 C.ar      1 RES1    0.0000
     48 H19        8.4152    5.1134    6.9763 H         1 RES1    0.0000
     49 C23        8.1606    4.1783    8.7569 C.ar      1 RES1    0.0000
     50 H20        8.5988    4.8397    9.2784 H         1 RES1    0.0000
     51 C24        7.6318    3.0500    9.3662 C.ar      1 RES1    0.0000
     52 H21        7.6950    2.9394   10.3082 H         1 RES1    0.0000
     53 C25        7.0118    2.0864    8.5890 C.ar      1 RES1    0.0000
     54 H22        6.6574    1.3077    9.0027 H         1 RES1    0.0000
     55 C26        6.9014    2.2439    7.2135 C.ar      1 RES1    0.0000
     56 H23        6.4801    1.5708    6.6918 H         1 RES1    0.0000
     57 H24        5.4351    4.5191    1.9531 H         1 RES1    0.0000
@<TRIPOS>BOND
     1    1    8 1
     2    2    6 2
     3    3    6 2
     4    4    7 2
     5    5    7 2
     6    6    9 1
     7    7   13 1
     8    8    9 1
     9    9   10 1
    10   11    9 1
    11   12   11 1
    12   13   11 1
    13   14   13 1
    14   15   13 1
    15   16   15 1
    16   17    8 1
    17   18   17 1
    18   19   17 1
    19   20   19 ar
    20   21   20 1
    21   22   20 ar
    22   23   22 1
    23   24   22 ar
    24   25   24 1
    25   26   24 ar
    26   27   26 1
    27   28   19 ar
    28   29   28 1
    29   30   29 1
    30   31   29 1
    31   32    8 1
    32   33   32 1
    33   34   32 1
    34   35   11 1
    35   36   35 ar
    36   37   36 1
    37   38   36 ar
    38   39   38 1
    39   40   38 ar
    40   41   40 1
    41   42   40 ar
    42   43   42 1
    43   44   35 ar
    44   45   44 1
    45   46   15 1
    46   47   46 ar
    47   48   47 1
    48   49   47 ar
    49   50   49 1
    50   51   49 ar
    51   52   51 1
    52   53   51 ar
    53   54   53 1
    54   55   46 ar
    55   56   55 1
    56   57    1 1
    57   15   17 1
    58   26   28 ar
    59   29   32 1
    60   42   44 ar
    61   53   55 ar
@<TRIPOS>SUBSTRUCTURE
     1 RES1 1

@<TRIPOS>CRYSIN
  11.2701    5.5860   17.8191  90.0000 101.6217  90.0000   4 1

