# MOL2 file generated by ConQuest
# Please check atom types

@<TRIPOS>MOLECULE
ZASXID
    88    91     1
SMALL
NO_CHARGES
****
Generated from CSD

@<TRIPOS>ATOM
      1 C1         8.9190   10.2864    0.5782 C.ar      1 RES1    0.0000
      2 C2         8.5342   10.7516    1.8135 C.ar      1 RES1    0.0000
      3 H1         7.6293   10.9694    2.0010 H         1 RES1    0.0000
      4 C3         9.5184   10.8868    2.7700 C.ar      1 RES1    0.0000
      5 H2         9.2803   11.2040    3.6338 H         1 RES1    0.0000
      6 C4        10.8400   10.5728    2.5118 C.ar      1 RES1    0.0000
      7 H3        11.4968   10.6786    3.1901 H         1 RES1    0.0000
      8 C5        11.2018   10.1010    1.2513 C.ar      1 RES1    0.0000
      9 C6        10.2194    9.9651    0.2694 C.ar      1 RES1    0.0000
     10 H4        10.4454    9.6554   -0.5999 H         1 RES1    0.0000
     11 C7        13.6451    9.9067    1.6324 C.2       1 RES1    0.0000
     12 C8        16.1062    9.9839    1.2954 C.ar      1 RES1    0.0000
     13 C9        16.5280    9.8189    2.6099 C.ar      1 RES1    0.0000
     14 H5        15.9149    9.5297    3.2745 H         1 RES1    0.0000
     15 C10       17.8520   10.0781    2.9458 C.ar      1 RES1    0.0000
     16 H6        18.1366    9.9905    3.8475 H         1 RES1    0.0000
     17 C11       18.7580   10.4628    1.9755 C.ar      1 RES1    0.0000
     18 H7        19.6660   10.6200    2.2058 H         1 RES1    0.0000
     19 C12       18.3355   10.6195    0.6628 C.ar      1 RES1    0.0000
     20 H8        18.9644   10.8725   -0.0036 H         1 RES1    0.0000
     21 C13       17.0108   10.4136    0.3061 C.ar      1 RES1    0.0000
     22 C14       16.5271   10.7605   -1.0803 C.3       1 RES1    0.0000
     23 H9        15.8818   11.5091   -1.0113 H         1 RES1    0.0000
     24 H10       17.2989   11.0783   -1.6130 H         1 RES1    0.0000
     25 C15       16.8852    8.6751   -2.2422 C.3       1 RES1    0.0000
     26 H11       17.4950    8.4802   -1.4873 H         1 RES1    0.0000
     27 H12       17.4247    9.0750   -2.9710 H         1 RES1    0.0000
     28 C16       16.2817    7.3734   -2.7348 C.3       1 RES1    0.0000
     29 H13       15.7426    7.5491   -3.5475 H         1 RES1    0.0000
     30 H14       17.0079    6.7473   -2.9799 H         1 RES1    0.0000
     31 C17       14.7684    5.5413   -2.2081 C.3       1 RES1    0.0000
     32 H15       14.5783    4.9354   -1.4478 H         1 RES1    0.0000
     33 H16       15.3673    5.0670   -2.8362 H         1 RES1    0.0000
     34 C18       13.4704    5.8942   -2.9124 C.3       1 RES1    0.0000
     35 H17       13.6383    6.6132   -3.5709 H         1 RES1    0.0000
     36 H18       13.1363    5.1017   -3.4021 H         1 RES1    0.0000
     37 C19       11.4950    7.2863   -2.5269 C.3       1 RES1    0.0000
     38 H19       10.7910    7.4749   -1.8573 H         1 RES1    0.0000
     39 H20       11.0603    6.8634   -3.3087 H         1 RES1    0.0000
     40 C20       12.1175    8.5975   -2.9636 C.3       1 RES1    0.0000
     41 H21       12.6468    8.4479   -3.7882 H         1 RES1    0.0000
     42 H22       11.3990    9.2437   -3.1757 H         1 RES1    0.0000
     43 C21       13.6380   10.4118   -2.3879 C.3       1 RES1    0.0000
     44 H23       13.6688   11.0580   -1.6382 H         1 RES1    0.0000
     45 H24       13.0944   10.8126   -3.1111 H         1 RES1    0.0000
     46 C22       15.0483   10.1754   -2.8988 C.3       1 RES1    0.0000
     47 H25       15.0295    9.5261   -3.6463 H         1 RES1    0.0000
     48 H26       15.4298   11.0245   -3.2350 H         1 RES1    0.0000
     49 C23       11.7418    5.1804   -1.4082 C.3       1 RES1    0.0000
     50 H27       12.4065    4.4854   -1.1747 H         1 RES1    0.0000
     51 H28       11.1560    4.8073   -2.1142 H         1 RES1    0.0000
     52 C24       10.9015    5.4737   -0.1899 C.ar      1 RES1    0.0000
     53 C25        9.8041    4.6720    0.0832 C.ar      1 RES1    0.0000
     54 H29        9.5768    3.9708   -0.5155 H         1 RES1    0.0000
     55 C26        9.0372    4.8786    1.2125 C.ar      1 RES1    0.0000
     56 H30        8.2937    4.3107    1.3759 H         1 RES1    0.0000
     57 C27        9.3258    5.8983    2.1183 C.ar      1 RES1    0.0000
     58 C28       10.4322    6.6889    1.8454 C.ar      1 RES1    0.0000
     59 H31       10.6667    7.3851    2.4483 H         1 RES1    0.0000
     60 C29       11.2068    6.4838    0.7068 C.ar      1 RES1    0.0000
     61 H32       11.9550    7.0453    0.5425 H         1 RES1    0.0000
     62 C30        8.4258    6.1271    3.3351 C.3       1 RES1    0.0000
     63 C31        8.0899    4.7619    3.9968 C.3       1 RES1    0.0000
     64 H33        8.9215    4.2975    4.2283 H         1 RES1    0.0000
     65 H34        7.5745    4.2126    3.3697 H         1 RES1    0.0000
     66 H35        7.5622    4.9127    4.8085 H         1 RES1    0.0000
     67 C32        7.1308    6.7760    2.8707 C.3       1 RES1    0.0000
     68 H36        6.5499    6.9376    3.6445 H         1 RES1    0.0000
     69 H37        6.6753    6.1812    2.2381 H         1 RES1    0.0000
     70 H38        7.3313    7.6281    2.4303 H         1 RES1    0.0000
     71 C33        9.0964    6.9938    4.3842 C.3       1 RES1    0.0000
     72 H39        9.2513    7.8890    4.0182 H         1 RES1    0.0000
     73 H40        9.9536    6.5929    4.6397 H         1 RES1    0.0000
     74 H41        8.5177    7.0596    5.1731 H         1 RES1    0.0000
     75 N1         7.9000   10.1463   -0.4641 N.pl3     1 RES1    0.0000
     76 N2        12.5096    9.7780    0.8685 N.am      1 RES1    0.0000
     77 N3        14.7827    9.7317    0.8796 N.am      1 RES1    0.0000
     78 N4        15.8838    9.6518   -1.8023 N.3       1 RES1    0.0000
     79 N5        12.4493    6.3415   -1.9516 N.3       1 RES1    0.0000
     80 O1         6.7311   10.3940   -0.1732 O.2       1 RES1    0.0000
     81 O2         8.2508    9.7859   -1.5825 O.2       1 RES1    0.0000
     82 O3        13.6559   10.1760    2.8246 O.2       1 RES1    0.0000
     83 H42       12.5780    9.5584    0.0234 H         1 RES1    0.0000
     84 H43       14.7144    9.5441    0.0593 H         1 RES1    0.0000
     85 N6        12.9891    9.1678   -1.9277 N.3       1 RES1    0.0000
     86 H44       13.6160    8.5472   -1.7675 H         1 RES1    0.0000
     87 N7        15.4337    6.7551   -1.7154 N.3       1 RES1    0.0000
     88 H45       15.9743    6.5331   -1.0149 H         1 RES1    0.0000
@<TRIPOS>BOND
     1    1    2 ar
     2    2    3 1
     3    4    2 ar
     4    5    4 1
     5    6    4 ar
     6    7    6 1
     7    8    6 ar
     8    9    1 ar
     9   10    9 1
    10   11   76 1
    11   12   13 ar
    12   13   14 1
    13   15   13 ar
    14   16   15 1
    15   17   15 ar
    16   18   17 1
    17   19   17 ar
    18   20   19 1
    19   21   12 ar
    20   22   21 1
    21   23   22 1
    22   24   22 1
    23   25   26 1
    24   27   25 1
    25   28   25 1
    26   29   28 1
    27   30   28 1
    28   31   32 1
    29   33   31 1
    30   34   31 1
    31   35   34 1
    32   36   34 1
    33   37   38 1
    34   39   37 1
    35   40   37 1
    36   41   40 1
    37   42   40 1
    38   43   44 1
    39   45   43 1
    40   46   43 1
    41   47   46 1
    42   48   46 1
    43   49   50 1
    44   51   49 1
    45   52   49 1
    46   53   52 ar
    47   54   53 1
    48   55   53 ar
    49   56   55 1
    50   57   55 ar
    51   58   57 ar
    52   59   58 1
    53   60   52 ar
    54   61   60 1
    55   62   57 1
    56   63   62 1
    57   64   63 1
    58   65   63 1
    59   66   63 1
    60   67   62 1
    61   68   67 1
    62   69   67 1
    63   70   67 1
    64   71   62 1
    65   72   71 1
    66   73   71 1
    67   74   71 1
    68   75    1 1
    69   76    8 1
    70   77   11 1
    71   78   22 1
    72   79   34 1
    73   80   75 2
    74   81   75 2
    75   82   11 2
    76   83   76 1
    77   84   77 1
    78   85   40 1
    79   86   85 1
    80   87   28 1
    81   88   87 1
    82    8    9 ar
    83   12   77 1
    84   19   21 ar
    85   25   78 1
    86   31   87 1
    87   37   79 1
    88   43   85 1
    89   46   78 1
    90   49   79 1
    91   58   60 ar
@<TRIPOS>SUBSTRUCTURE
     1 RES1 1

@<TRIPOS>CRYSIN
  14.9008   11.9675   17.9866  90.0000  92.9800  90.0000  14 1

