# MOL2 file generated by ConQuest
# Please check atom types

@<TRIPOS>MOLECULE
ZATKUA
    25    25     1
SMALL
NO_CHARGES
****
Generated from CSD

@<TRIPOS>ATOM
      1 O1         1.4571    0.1949    9.9091 O.3       1 RES1    0.0000
      2 O2         0.2874    2.3270   10.4392 O.2       1 RES1    0.0000
      3 N1         1.1781    0.3556    8.5799 N.2       1 RES1    0.0000
      4 N2        -1.5400    4.7344    6.8138 N.3       1 RES1    0.0000
      5 C1         0.5023    1.4226    8.2575 C.2       1 RES1    0.0000
      6 C2         0.0057    2.4484    9.1967 C.2       1 RES1    0.0000
      7 C3        -0.7194    3.5034    8.6768 C.2       1 RES1    0.0000
      8 C4        -0.9108    3.6624    7.3044 C.2       1 RES1    0.0000
      9 C5        -0.4193    2.6519    6.3626 C.2       1 RES1    0.0000
     10 C6         0.2377    1.5952    6.8482 C.2       1 RES1    0.0000
     11 C7        -2.0831    5.7996    7.6675 C.3       1 RES1    0.0000
     12 C8        -2.7206    6.8802    6.8533 C.3       1 RES1    0.0000
     13 C9        -0.6837    2.8041    4.8908 C.3       1 RES1    0.0000
     14 H1         1.0571    0.9746   10.3602 H         1 RES1    0.0000
     15 H2        -1.6115    4.9071    5.7981 H         1 RES1    0.0000
     16 H3        -1.0124    4.1377    9.2643 H         1 RES1    0.0000
     17 H4         0.4990    0.9233    6.1932 H         1 RES1    0.0000
     18 H5        -1.2885    6.2066    8.2193 H         1 RES1    0.0000
     19 H6        -2.8037    5.4201    8.2575 H         1 RES1    0.0000
     20 H7        -2.0262    7.3521    6.3333 H         1 RES1    0.0000
     21 H8        -3.4098    6.5314    6.2696 H         1 RES1    0.0000
     22 H9        -3.1538    7.5573    7.5439 H         1 RES1    0.0000
     23 H10       -0.3676    3.6590    4.6130 H         1 RES1    0.0000
     24 H11       -1.6830    2.8041    4.7022 H         1 RES1    0.0000
     25 H12       -0.2836    2.0005    4.4474 H         1 RES1    0.0000
@<TRIPOS>BOND
     1    1    3 1
     2    2    6 2
     3    3    5 2
     4    4    8 1
     5    5    6 1
     6    6    7 1
     7    7    8 2
     8    8    9 1
     9    9   10 2
    10   10    5 1
    11   11    4 1
    12   12   11 1
    13   13    9 1
    14   14    1 1
    15   15    4 1
    16   16    7 1
    17   17   10 1
    18   18   11 1
    19   19   11 1
    20   20   12 1
    21   21   12 1
    22   22   12 1
    23   23   13 1
    24   24   13 1
    25   25   13 1
@<TRIPOS>SUBSTRUCTURE
     1 RES1 1

@<TRIPOS>CRYSIN
   4.0860   17.0980   12.7920  90.0000  95.0100  90.0000 231 1

