# MOL2 file generated by ConQuest
# Please check atom types

@<TRIPOS>MOLECULE
ZATNIR
    31    32     1
SMALL
USER_CHARGES
****
Generated from CSD

@<TRIPOS>ATOM
      1 O1         0.6878    1.5716    4.0017 O.3       1 RES1    0.0000
      2 O2        -0.3773   -0.4788    4.8300 O.co2     1 RES1    0.0000
      3 O3        -1.6219   -1.7230    3.4751 O.co2     1 RES1   -1.0000
      4 N1        -0.3122    1.6289    3.0028 N.4       1 RES1    1.0000
      5 C1         0.3209    2.2121    1.7801 C.3       1 RES1    0.0000
      6 C2         1.1483    1.0989    1.2188 C.3       1 RES1    0.0000
      7 C3         0.4657   -0.1964    1.6440 C.3       1 RES1    0.0000
      8 C4        -0.6670    0.2108    2.5651 C.3       1 RES1    0.0000
      9 C5        -0.9219   -0.7571    3.7132 C.2       1 RES1    0.0000
     10 C6        -1.4857    2.4003    3.5176 C.3       1 RES1    0.0000
     11 C7        -1.1891    3.8450    3.7793 C.ar      1 RES1    0.0000
     12 C8        -0.7042    4.2604    4.9870 C.ar      1 RES1    0.0000
     13 C9        -0.4198    5.6048    5.2094 C.ar      1 RES1    0.0000
     14 C10       -0.6227    6.5113    4.2261 C.ar      1 RES1    0.0000
     15 C11       -1.1353    6.1246    3.0486 C.ar      1 RES1    0.0000
     16 C12       -1.4241    4.7842    2.7993 C.ar      1 RES1    0.0000
     17 H1        -0.3330    2.5067    1.1645 H         1 RES1    0.0000
     18 H2         0.8612    2.9815    2.0149 H         1 RES1    0.0000
     19 H3         1.2125    1.1398    0.2761 H         1 RES1    0.0000
     20 H4         2.0390    1.1152    1.5832 H         1 RES1    0.0000
     21 H5         0.1778   -0.6835    0.8675 H         1 RES1    0.0000
     22 H6         1.1023   -0.7817    2.1019 H         1 RES1    0.0000
     23 H7        -1.4562    0.2558    2.0404 H         1 RES1    0.0000
     24 H8        -2.1908    2.3492    2.8222 H         1 RES1    0.0000
     25 H9        -1.8439    1.9849    4.2883 H         1 RES1    0.0000
     26 H10       -0.5976    3.5872    5.7072 H         1 RES1    0.0000
     27 H11       -0.0130    5.8811    6.1004 H         1 RES1    0.0000
     28 H12       -0.4007    7.4444    4.3504 H         1 RES1    0.0000
     29 H13       -1.3018    6.7937    2.3473 H         1 RES1    0.0000
     30 H14       -1.7944    4.4937    1.9214 H         1 RES1    0.0000
     31 H15        0.2923    0.6446    4.5827 H         1 RES1    0.0000
@<TRIPOS>BOND
     1    1    4 1
     2    2    9 2
     3    3    9 1
     4    4    5 1
     5    5    6 1
     6    6    7 1
     7    7    8 1
     8    8    4 1
     9    9    8 1
    10   10    4 1
    11   11   10 1
    12   12   11 ar
    13   13   12 ar
    14   14   13 ar
    15   15   14 ar
    16   16   11 ar
    17   17    5 1
    18   18    5 1
    19   19    6 1
    20   20    6 1
    21   21    7 1
    22   22    7 1
    23   23    8 1
    24   24   10 1
    25   25   10 1
    26   26   12 1
    27   27   13 1
    28   28   14 1
    29   29   15 1
    30   30   16 1
    31   31    1 1
    32   15   16 ar
@<TRIPOS>SUBSTRUCTURE
     1 RES1 1

@<TRIPOS>CRYSIN
   8.6730   20.4630    6.5420  90.0000  90.0000  90.0000  19 1

