# MOL2 file generated by ConQuest
# Please check atom types

@<TRIPOS>MOLECULE
ZATQIX
    32    35     1
SMALL
USER_CHARGES
****
Generated from CSD

@<TRIPOS>ATOM
      1 O1         6.1707    2.9798    1.1521 O.3       1 RES1    0.0000
      2 O2         5.5938    0.8177    0.6951 O.2       1 RES1    0.0000
      3 N1         7.6141    2.7250    2.6772 N.pl3     1 RES1    1.0000
      4 N2         7.0259    3.6690    1.9924 N.2       1 RES1   -1.0000
      5 C1         8.8021    4.6215    3.7639 C.3       1 RES1    0.0000
      6 H1         7.9410    5.0332    4.0268 H         1 RES1    0.0000
      7 H2         9.0615    4.9787    2.8781 H         1 RES1    0.0000
      8 C2         8.6538    3.1031    3.6909 C.3       1 RES1    0.0000
      9 C3         6.2759    1.5848    1.3579 C.2       1 RES1    0.0000
     10 C4        11.2191    4.3230    4.3812 C.3       1 RES1    0.0000
     11 H3        11.9179    4.5485    5.0453 H         1 RES1    0.0000
     12 H4        11.4985    4.6814    3.5017 H         1 RES1    0.0000
     13 C5         9.9795    2.4583    3.2498 C.3       1 RES1    0.0000
     14 H5         9.8719    1.4759    3.1789 H         1 RES1    0.0000
     15 H6        10.2473    2.8069    2.3627 H         1 RES1    0.0000
     16 C6        10.6211    2.2416    5.6599 C.3       1 RES1    0.0000
     17 H7        11.3193    2.4344    6.3358 H         1 RES1    0.0000
     18 H8        10.5089    1.2591    5.6021 H         1 RES1    0.0000
     19 C7         7.2375    1.4748    2.3668 C.2       1 RES1    0.0000
     20 H9         7.5614    0.6709    2.7563 H         1 RES1    0.0000
     21 C8         9.4567    4.4113    6.1768 C.3       1 RES1    0.0000
     22 H10       10.1435    4.6367    6.8526 H         1 RES1    0.0000
     23 H11        8.6008    4.8262    6.4528 H         1 RES1    0.0000
     24 C9        11.0550    2.7949    4.2945 C.3       1 RES1    0.0000
     25 H12       11.9236    2.3799    4.0254 H         1 RES1    0.0000
     26 C10        9.2935    2.8907    6.0866 C.3       1 RES1    0.0000
     27 H13        9.0216    2.5335    6.9799 H         1 RES1    0.0000
     28 C11        9.8803    4.9526    4.7996 C.3       1 RES1    0.0000
     29 H14        9.9871    5.9449    4.8561 H         1 RES1    0.0000
     30 C12        8.2102    2.5487    5.0502 C.3       1 RES1    0.0000
     31 H15        8.0917    1.5674    4.9944 H         1 RES1    0.0000
     32 H16        7.3467    2.9528    5.3165 H         1 RES1    0.0000
@<TRIPOS>BOND
     1    1    4 1
     2    2    9 2
     3    3    4 1
     4    5    6 1
     5    7    5 1
     6    8    3 1
     7    9    1 1
     8   10   11 1
     9   12   10 1
    10   13    8 1
    11   14   13 1
    12   15   13 1
    13   16   17 1
    14   18   16 1
    15   19    3 2
    16   20   19 1
    17   21   22 1
    18   23   21 1
    19   24   10 1
    20   25   24 1
    21   26   16 1
    22   27   26 1
    23   28    5 1
    24   29   28 1
    25   30    8 1
    26   31   30 1
    27   32   30 1
    28    5    8 1
    29    9   19 1
    30   10   28 1
    31   13   24 1
    32   16   24 1
    33   21   26 1
    34   21   28 1
    35   26   30 1
@<TRIPOS>SUBSTRUCTURE
     1 RES1 1

@<TRIPOS>CRYSIN
  14.2185   10.8920    6.8822  90.0000  90.0000  90.0000  33 1

