# MOL2 file generated by ConQuest
# Please check atom types

@<TRIPOS>MOLECULE
ZAVTEV
    10    10     1
SMALL
NO_CHARGES
****
Generated from CSD

@<TRIPOS>ATOM
      1 C1         3.1683   10.4185    1.2577 C.2       1 RES1    0.0000
      2 H1         4.0074   10.4662    1.6560 H         1 RES1    0.0000
      3 C2         2.8980   10.2770   -0.0732 C.2       1 RES1    0.0000
      4 H2         3.5109   10.2144   -0.7696 H         1 RES1    0.0000
      5 C3         1.5285   10.2467   -0.1636 C.2       1 RES1    0.0000
      6 H3         1.0568   10.1548   -0.9602 H         1 RES1    0.0000
      7 N1         0.9619   10.3660    1.0367 N.2       1 RES1    0.0000
      8 N2         1.9906   10.4744    1.8684 N.pl3     1 RES1    0.0000
      9 O1         1.7641   10.5336    3.2111 O.3       1 RES1    0.0000
     10 H4         1.7436   11.4729    3.4090 H         1 RES1    0.0000
@<TRIPOS>BOND
     1    1    2 1
     2    3    1 2
     3    4    3 1
     4    5    3 1
     5    6    5 1
     6    7    5 2
     7    8    1 1
     8    9    8 1
     9   10    9 1
    10    7    8 1
@<TRIPOS>SUBSTRUCTURE
     1 RES1 1

@<TRIPOS>CRYSIN
  16.1590   16.1590    6.5950  90.0000  90.0000  90.0000  88 1

