# MOL2 file generated by ConQuest
# Please check atom types

@<TRIPOS>MOLECULE
ZAWNOD
    75    79     2
SMALL
NO_CHARGES
****
Generated from CSD

@<TRIPOS>ATOM
      1 O1         0.9394    5.5664   18.8919 O.3       1 RES1    0.0000
      2 H1         1.0133    5.0904   19.5800 H         1 RES1    0.0000
      3 O2         1.6825    7.4525   16.3218 O.2       1 RES1    0.0000
      4 O3         3.6076    9.2354   16.3306 O.3       1 RES1    0.0000
      5 O4         5.0429    9.1268   18.0732 O.2       1 RES1    0.0000
      6 N1         1.2511    4.7724   17.7188 N.3       1 RES1    0.0000
      7 N2         2.2426    3.7865   13.8916 N.3       1 RES1    0.0000
      8 N3         3.6714    7.3725   17.5478 N.am      1 RES1    0.0000
      9 C1         3.6165    3.7960   13.9520 C.ar      1 RES1    0.0000
     10 C2         2.5179    5.3149   17.2010 C.3       1 RES1    0.0000
     11 C3         1.7581    4.3269   15.0631 C.2       1 RES1    0.0000
     12 C4         3.6195    5.1692   18.2137 C.ar      1 RES1    0.0000
     13 C5         2.7938    4.6546   15.8804 C.2       1 RES1    0.0000
     14 C6         4.0124    4.3311   15.2031 C.ar      1 RES1    0.0000
     15 C7         4.2901    6.3741   18.3688 C.ar      1 RES1    0.0000
     16 C8         0.3148    4.5155   15.3733 C.3       1 RES1    0.0000
     17 H2        -0.1650    3.6528   15.2138 H         1 RES1    0.0000
     18 O5        -2.3707    4.5748   14.4301 O.2       1 RES1    0.0000
     19 C9         4.5424    3.3542   13.0061 C.ar      1 RES1    0.0000
     20 H3         4.2632    3.0046   12.1689 H         1 RES1    0.0000
     21 C10        3.9962    4.0494   18.9224 C.ar      1 RES1    0.0000
     22 H4         3.5241    3.2306   18.8253 H         1 RES1    0.0000
     23 C11        0.0655    4.9650   16.8513 C.3       1 RES1    0.0000
     24 H5        -0.1642    5.9381   16.8485 H         1 RES1    0.0000
     25 C12        4.1794    8.6745   17.3603 C.2       1 RES1    0.0000
     26 C13        2.5108    6.8433   16.9427 C.2       1 RES1    0.0000
     27 C14        5.3772    4.4101   15.5060 C.ar      1 RES1    0.0000
     28 H6         5.6695    4.7657   16.3366 H         1 RES1    0.0000
     29 C15        5.3863    6.4851   19.2131 C.ar      1 RES1    0.0000
     30 H7         5.8543    7.3056   19.3110 H         1 RES1    0.0000
     31 C16       -1.1151    4.2015   17.4238 C.ar      1 RES1    0.0000
     32 C17        5.8754    3.4448   13.3357 C.ar      1 RES1    0.0000
     33 H8         6.5279    3.1510   12.7121 H         1 RES1    0.0000
     34 C18        5.0826    4.1439   19.7844 C.ar      1 RES1    0.0000
     35 H9         5.3548    3.3865   20.2902 H         1 RES1    0.0000
     36 C19        6.2943    3.9595   14.5690 C.ar      1 RES1    0.0000
     37 H10        7.2230    4.0008   14.7672 H         1 RES1    0.0000
     38 C20        5.7689    5.3422   19.9082 C.ar      1 RES1    0.0000
     39 H11        6.5224    5.3843   20.4835 H         1 RES1    0.0000
     40 C21       -2.3033    4.8496   17.7055 C.ar      1 RES1    0.0000
     41 H12       -2.3495    5.7970   17.6502 H         1 RES1    0.0000
     42 C22        1.4633    3.2253   12.7943 C.3       1 RES1    0.0000
     43 H13        1.4596    3.8533   12.0410 H         1 RES1    0.0000
     44 H14        0.5434    3.0693   13.0933 H         1 RES1    0.0000
     45 H15        1.8632    2.3776   12.5110 H         1 RES1    0.0000
     46 O6        -2.3125    6.6924   14.7210 O.2       1 RES1    0.0000
     47 C23        3.8871   10.6481   15.9319 C.3       1 RES1    0.0000
     48 C24       -1.0609    2.8263   17.5794 C.ar      1 RES1    0.0000
     49 H16       -0.2438    2.3680   17.4230 H         1 RES1    0.0000
     50 C25       -0.2734    5.5912   14.4473 C.3       1 RES1    0.0000
     51 H17        0.0955    6.4760   14.6941 H         1 RES1    0.0000
     52 H18       -0.0121    5.3991   13.5112 H         1 RES1    0.0000
     53 N4        -1.7685    5.6293   14.5494 N.pl3     1 RES1    0.0000
     54 C26       -2.1832    2.1123   17.9604 C.ar      1 RES1    0.0000
     55 H19       -2.1243    1.1702   18.0654 H         1 RES1    0.0000
     56 C27       -3.3943    2.7500   18.1910 C.ar      1 RES1    0.0000
     57 C28        3.5989   11.5770   17.0751 C.3       1 RES1    0.0000
     58 H20        2.6975   11.4030   17.4178 H         1 RES1    0.0000
     59 H21        3.6570   12.5042   16.7649 H         1 RES1    0.0000
     60 H22        4.2537   11.4284   17.7886 H         1 RES1    0.0000
     61 C29       -3.4360    4.1207   18.0719 C.ar      1 RES1    0.0000
     62 H23       -4.2508    4.5790   18.2429 H         1 RES1    0.0000
     63 C30        5.2999   10.7516   15.4707 C.3       1 RES1    0.0000
     64 H24        5.9024   10.5330   16.2113 H         1 RES1    0.0000
     65 H25        5.4774   11.6661   15.1642 H         1 RES1    0.0000
     66 H26        5.4487   10.1256   14.7333 H         1 RES1    0.0000
     67 C31        2.9166   10.8290   14.7886 C.3       1 RES1    0.0000
     68 H27        3.1076   10.1680   14.0909 H         1 RES1    0.0000
     69 H28        3.0137   11.7319   14.4173 H         1 RES1    0.0000
     70 H29        2.0016   10.7070   15.1145 H         1 RES1    0.0000
     71 C32       -4.6232    1.9489   18.5380 C.3       1 RES1    0.0000
     72 H30       -4.4838    1.0121   18.2873 H         1 RES1    0.0000
     73 H31       -5.3950    2.3065   18.0497 H         1 RES1    0.0000
     74 H32       -4.7915    2.0094   19.5016 H         1 RES1    0.0000
     75 H33        1.3547    3.8088   17.9635 Du        2 SUP2    0.0000
@<TRIPOS>BOND
     1    1    2 1
     2    3   26 2
     3    4   25 1
     4    5   25 2
     5    6    1 1
     6    7    9 1
     7    8   15 1
     8    9   14 ar
     9   10    6 1
    10   11    7 1
    11   12   10 1
    12   13   10 1
    13   14   13 1
    14   15   12 ar
    15   16   11 1
    16   17   16 1
    17   18   53 2
    18   19    9 ar
    19   20   19 1
    20   21   12 ar
    21   22   21 1
    22   23    6 1
    23   24   23 1
    24   25    8 1
    25   26    8 1
    26   27   14 ar
    27   28   27 1
    28   29   15 ar
    29   30   29 1
    30   31   23 1
    31   32   19 ar
    32   33   32 1
    33   34   21 ar
    34   35   34 1
    35   36   27 ar
    36   37   36 1
    37   38   29 ar
    38   39   38 1
    39   40   31 ar
    40   41   40 1
    41   42    7 1
    42   43   42 1
    43   44   42 1
    44   45   42 1
    45   46   53 2
    46   47    4 1
    47   48   31 ar
    48   49   48 1
    49   50   16 1
    50   51   50 1
    51   52   50 1
    52   53   50 1
    53   54   48 ar
    54   55   54 1
    55   56   54 ar
    56   57   47 1
    57   58   57 1
    58   59   57 1
    59   60   57 1
    60   61   40 ar
    61   62   61 1
    62   63   47 1
    63   64   63 1
    64   65   63 1
    65   66   63 1
    66   67   47 1
    67   68   67 1
    68   69   67 1
    69   70   67 1
    70   71   56 1
    71   72   71 1
    72   73   71 1
    73   74   71 1
    74   10   26 1
    75   11   13 2
    76   16   23 1
    77   32   36 ar
    78   34   38 ar
    79   56   61 ar
@<TRIPOS>SUBSTRUCTURE
     1 RES1 1
     2 SUP2 75

@<TRIPOS>CRYSIN
  12.3654   10.6094   26.4117  90.0000  98.6169  90.0000  14 1

