# MOL2 file generated by ConQuest
# Please check atom types

@<TRIPOS>MOLECULE
ZAWRUN
    92    97     1
SMALL
USER_CHARGES
****
Generated from CSD

@<TRIPOS>ATOM
      1 N1        -0.8081   -1.3921    0.2866 N.pl3     1 RES1    0.0000
      2 N2        -3.6557    1.5828    3.3278 N.pl3     1 RES1    0.0000
      3 N3         0.5909    5.5238    3.2719 N.pl3     1 RES1    0.0000
      4 N4        -1.9183    6.8024    7.5139 N.pl3     1 RES1    1.0000
      5 O1        -1.7112   -1.1010    5.7584 O.3       1 RES1    0.0000
      6 O2        -0.0672   -2.2946   -0.1577 O.2       1 RES1    0.0000
      7 O3        -1.3795   -0.5896   -0.4291 O.2       1 RES1    0.0000
      8 O4        -7.7137    2.5101    8.2653 O.3       1 RES1    0.0000
      9 H1        -8.4867    2.1814    8.2772 H         1 RES1    0.0000
     10 O5        -1.6967    6.5005    1.5248 O.3       1 RES1    0.0000
     11 O6        -2.7396    7.3241    8.4230 O.2       1 RES1   -1.0000
     12 O7         3.4455   10.1936    2.0998 O.3       1 RES1    0.0000
     13 O8         3.4799    8.6141    5.8924 O.3       1 RES1    0.0000
     14 O9         2.4105   10.4505    5.1444 O.3       1 RES1    0.0000
     15 C1        -1.1238   -2.0410    6.6641 C.3       1 RES1    0.0000
     16 H2        -1.5240   -2.9247    6.5224 H         1 RES1    0.0000
     17 H3        -1.2881   -1.7524    7.5860 H         1 RES1    0.0000
     18 H4        -0.1585   -2.0903    6.5038 H         1 RES1    0.0000
     19 C2        -1.4401   -1.2583    4.4269 C.ar      1 RES1    0.0000
     20 C3        -0.6826   -2.2766    3.8994 C.ar      1 RES1    0.0000
     21 H5        -0.3307   -2.9531    4.4673 H         1 RES1    0.0000
     22 C4        -0.4353   -2.3124    2.5408 C.ar      1 RES1    0.0000
     23 H6         0.1158   -2.9888    2.1646 H         1 RES1    0.0000
     24 C5        -1.0083   -1.3423    1.7402 C.ar      1 RES1    0.0000
     25 C6        -1.7766   -0.3005    2.2728 C.ar      1 RES1    0.0000
     26 H7        -2.1338    0.3718    1.7043 H         1 RES1    0.0000
     27 C7        -2.0041   -0.2622    3.6111 C.ar      1 RES1    0.0000
     28 C8        -2.8441    0.8105    4.2658 C.3       1 RES1    0.0000
     29 H8        -3.4422    0.3850    4.9299 H         1 RES1    0.0000
     30 H9        -2.2453    1.4296    4.7541 H         1 RES1    0.0000
     31 C9        -5.0726    1.2733    3.3601 C.3       1 RES1    0.0000
     32 H10       -5.1818    0.2994    3.2182 H         1 RES1    0.0000
     33 H11       -5.5092    1.7340    2.6000 H         1 RES1    0.0000
     34 C10       -5.8078    1.6585    4.6440 C.ar      1 RES1    0.0000
     35 C11       -5.2322    2.5436    5.5786 C.ar      1 RES1    0.0000
     36 H12       -4.3834    2.9337    5.4056 H         1 RES1    0.0000
     37 C12       -5.9195    2.8484    6.7710 C.ar      1 RES1    0.0000
     38 H13       -5.5532    3.4753    7.3834 H         1 RES1    0.0000
     39 C13       -7.1165    2.2396    7.0492 C.ar      1 RES1    0.0000
     40 C14       -7.6854    1.3713    6.1265 C.ar      1 RES1    0.0000
     41 H14       -8.5275    0.9714    6.3116 H         1 RES1    0.0000
     42 C15       -7.0394    1.0868    4.9527 C.ar      1 RES1    0.0000
     43 H15       -7.4404    0.4862    4.3357 H         1 RES1    0.0000
     44 C16       -3.2284    2.8442    2.9275 C.ar      1 RES1    0.0000
     45 C17       -4.1026    3.8980    2.6087 C.ar      1 RES1    0.0000
     46 H16       -5.0365    3.7727    2.7319 H         1 RES1    0.0000
     47 C18       -3.6495    5.1128    2.1202 C.ar      1 RES1    0.0000
     48 H17       -4.2663    5.7897    1.8689 H         1 RES1    0.0000
     49 C19       -2.2732    5.3303    2.0031 C.ar      1 RES1    0.0000
     50 C20       -1.3622    4.3255    2.3339 C.ar      1 RES1    0.0000
     51 C21       -1.8487    3.1231    2.8020 C.ar      1 RES1    0.0000
     52 H18       -1.2262    2.4504    3.0514 H         1 RES1    0.0000
     53 C22       -2.5992    7.5159    1.1042 C.3       1 RES1    0.0000
     54 H19       -3.2063    7.1527    0.4254 H         1 RES1    0.0000
     55 H20       -2.0940    8.2643    0.7226 H         1 RES1    0.0000
     56 H21       -3.1185    7.8301    1.8727 H         1 RES1    0.0000
     57 C23        0.1215    4.5587    2.2643 C.3       1 RES1    0.0000
     58 H22        0.5916    3.6977    2.3969 H         1 RES1    0.0000
     59 H23        0.3538    4.8949    1.3623 H         1 RES1    0.0000
     60 C24        0.6738    5.0128    4.6372 C.3       1 RES1    0.0000
     61 H24        1.6102    5.0954    4.9476 H         1 RES1    0.0000
     62 H25        0.4461    4.0496    4.6276 H         1 RES1    0.0000
     63 C25       -0.2215    5.7067    5.6261 C.ar      1 RES1    0.0000
     64 C26        0.2111    5.9485    6.9050 C.ar      1 RES1    0.0000
     65 H26        1.1017    5.7256    7.1486 H         1 RES1    0.0000
     66 C27       -0.6324    6.5122    7.8447 C.ar      1 RES1    0.0000
     67 H27       -0.3134    6.6969    8.7194 H         1 RES1    0.0000
     68 C28       -2.3652    6.6134    6.2622 C.ar      1 RES1    0.0000
     69 H28       -3.2557    6.8475    6.0288 H         1 RES1    0.0000
     70 C29       -1.5160    6.0749    5.3208 C.ar      1 RES1    0.0000
     71 H29       -1.8321    5.9531    4.4337 H         1 RES1    0.0000
     72 C30        1.2952    6.6839    2.9326 C.ar      1 RES1    0.0000
     73 C31        1.4260    7.1558    1.6012 C.ar      1 RES1    0.0000
     74 H30        1.0149    6.6740    0.8933 H         1 RES1    0.0000
     75 C32        2.1285    8.2855    1.3162 C.ar      1 RES1    0.0000
     76 H31        2.2087    8.5646    0.4125 H         1 RES1    0.0000
     77 C33        2.7274    9.0342    2.3084 C.ar      1 RES1    0.0000
     78 C34        2.6051    8.6167    3.6348 C.ar      1 RES1    0.0000
     79 C35        1.8988    7.4492    3.9283 C.ar      1 RES1    0.0000
     80 H32        1.8287    7.1683    4.8327 H         1 RES1    0.0000
     81 C36        3.5110   10.6556    0.7480 C.3       1 RES1    0.0000
     82 H33        3.9342    9.9716    0.1879 H         1 RES1    0.0000
     83 H34        4.0398   11.4808    0.7098 H         1 RES1    0.0000
     84 H35        2.6055   10.8334    0.4182 H         1 RES1    0.0000
     85 C37        3.2666    9.4142    4.7373 C.3       1 RES1    0.0000
     86 H36        4.1345    9.7923    4.4154 H         1 RES1    0.0000
     87 C38        2.9518    9.3210    7.0220 C.3       1 RES1    0.0000
     88 H37        3.5803    9.2874    7.7857 H         1 RES1    0.0000
     89 H38        2.0824    8.9400    7.3027 H         1 RES1    0.0000
     90 C39        2.7890   10.7089    6.5284 C.3       1 RES1    0.0000
     91 H39        2.0769   11.1902    7.0192 H         1 RES1    0.0000
     92 H40        3.6346   11.2198    6.5878 H         1 RES1    0.0000
@<TRIPOS>BOND
     1    1    6 2
     2    2   28 1
     3    3   57 1
     4    4   11 1
     5    5   15 1
     6    7    1 2
     7    8    9 1
     8   10   49 1
     9   12   77 1
    10   13   85 1
    11   14   85 1
    12   15   16 1
    13   17   15 1
    14   18   15 1
    15   19    5 1
    16   20   19 ar
    17   21   20 1
    18   22   20 ar
    19   23   22 1
    20   24    1 1
    21   25   24 ar
    22   26   25 1
    23   27   19 ar
    24   28   27 1
    25   29   28 1
    26   30   28 1
    27   31    2 1
    28   32   31 1
    29   33   31 1
    30   34   31 1
    31   35   34 ar
    32   36   35 1
    33   37   35 ar
    34   38   37 1
    35   39    8 1
    36   40   39 ar
    37   41   40 1
    38   42   34 ar
    39   43   42 1
    40   44    2 1
    41   45   44 ar
    42   46   45 1
    43   47   45 ar
    44   48   47 1
    45   49   47 ar
    46   50   49 ar
    47   51   44 ar
    48   52   51 1
    49   53   10 1
    50   54   53 1
    51   55   53 1
    52   56   53 1
    53   57   50 1
    54   58   57 1
    55   59   57 1
    56   60    3 1
    57   61   60 1
    58   62   60 1
    59   63   60 1
    60   64   63 ar
    61   65   64 1
    62   66    4 ar
    63   67   66 1
    64   68    4 ar
    65   69   68 1
    66   70   63 ar
    67   71   70 1
    68   72    3 1
    69   73   72 ar
    70   74   73 1
    71   75   73 ar
    72   76   75 1
    73   77   75 ar
    74   78   77 ar
    75   79   72 ar
    76   80   79 1
    77   81   12 1
    78   82   81 1
    79   83   81 1
    80   84   81 1
    81   85   78 1
    82   86   85 1
    83   87   13 1
    84   88   87 1
    85   89   87 1
    86   90   14 1
    87   91   90 1
    88   92   90 1
    89   22   24 ar
    90   25   27 ar
    91   37   39 ar
    92   40   42 ar
    93   50   51 ar
    94   64   66 ar
    95   68   70 ar
    96   78   79 ar
    97   87   90 1
@<TRIPOS>SUBSTRUCTURE
     1 RES1 1

@<TRIPOS>CRYSIN
   8.2839   12.3644   17.9163 102.9940 103.0820  91.0850   2 1

