# MOL2 file generated by ConQuest
# Please check atom types

@<TRIPOS>MOLECULE
ZAYRAS
    36    38     1
SMALL
NO_CHARGES
****
Generated from CSD

@<TRIPOS>ATOM
      1 C1         2.0470    2.9215   10.7868 C.3       1 RES1    0.0000
      2 C2         0.8858    2.8219    9.8008 C.3       1 RES1    0.0000
      3 C3        -0.2726    3.5436   10.5188 C.3       1 RES1    0.0000
      4 C4         0.3179    3.8523   11.9034 C.3       1 RES1    0.0000
      5 C5         1.2807    5.0328   11.7335 C.3       1 RES1    0.0000
      6 C6         2.4600    4.3986   10.9649 C.3       1 RES1    0.0000
      7 C7         1.2789    2.6755   12.0999 C.3       1 RES1    0.0000
      8 C8         0.3487    3.3476    7.5534 C.2       1 RES1    0.0000
      9 C9         0.7882    4.0466    6.2991 C.ar      1 RES1    0.0000
     10 C10        1.5187    5.2356    6.2750 C.ar      1 RES1    0.0000
     11 C11        1.9216    5.8452    5.1052 C.ar      1 RES1    0.0000
     12 C12        1.5325    5.2501    3.9232 C.ar      1 RES1    0.0000
     13 C13        0.8161    4.0649    3.8818 C.ar      1 RES1    0.0000
     14 C14        0.4529    3.4720    5.0721 C.ar      1 RES1    0.0000
     15 H1         2.8069    2.3036   10.5743 H         1 RES1    0.0000
     16 H2         0.6612    1.8839    9.6184 H         1 RES1    0.0000
     17 H3        -0.5036    4.3484   10.0398 H         1 RES1    0.0000
     18 H4        -1.1059    2.9670   10.5820 H         1 RES1    0.0000
     19 H5        -0.3469    3.9287   12.6404 H         1 RES1    0.0000
     20 H6         1.5715    5.4116   12.6738 H         1 RES1    0.0000
     21 H7         0.8387    5.7789   11.1988 H         1 RES1    0.0000
     22 H8         2.6339    4.8183   10.1349 H         1 RES1    0.0000
     23 H9         3.3123    4.4009   11.5045 H         1 RES1    0.0000
     24 H10        0.8179    1.7918   12.1341 H         1 RES1    0.0000
     25 H11        1.8106    2.7606   12.8819 H         1 RES1    0.0000
     26 H12        2.3739    6.6940    5.1060 H         1 RES1    0.0000
     27 H13        0.5842    3.7212    3.0091 H         1 RES1    0.0000
     28 H14        0.0136    2.6335    5.1034 H         1 RES1    0.0000
     29 N1         1.8237    5.9667    7.5110 N.pl3     1 RES1    0.0000
     30 N2         1.8749    5.9352    2.6655 N.pl3     1 RES1    0.0000
     31 O1         1.2527    3.4475    8.5278 O.3       1 RES1    0.0000
     32 O2        -0.6953    2.7506    7.6230 O.2       1 RES1    0.0000
     33 O3         0.8926    6.2239    8.2629 O.2       1 RES1    0.0000
     34 O4         2.9863    6.3025    7.6857 O.2       1 RES1    0.0000
     35 O5         2.6931    6.8457    2.7149 O.2       1 RES1    0.0000
     36 O6         1.3142    5.5638    1.6505 O.2       1 RES1    0.0000
@<TRIPOS>BOND
     1    1    2 1
     2    2    3 1
     3    3    4 1
     4    4    5 1
     5    5    6 1
     6    6    1 1
     7    7    1 1
     8    8    9 1
     9    9   10 ar
    10   10   11 ar
    11   11   12 ar
    12   12   13 ar
    13   13   14 ar
    14   14    9 ar
    15   15    1 1
    16   16    2 1
    17   17    3 1
    18   18    3 1
    19   19    4 1
    20   20    5 1
    21   21    5 1
    22   22    6 1
    23   23    6 1
    24   24    7 1
    25   25    7 1
    26   26   11 1
    27   27   13 1
    28   28   14 1
    29   29   10 1
    30   30   12 1
    31   31    2 1
    32   32    8 2
    33   33   29 2
    34   34   29 2
    35   35   30 2
    36   36   30 2
    37    4    7 1
    38    8   31 1
@<TRIPOS>SUBSTRUCTURE
     1 RES1 1

@<TRIPOS>CRYSIN
   9.0574   11.6580   25.6970  90.0000  90.0000  90.0000  61 1

