# MOL2 file generated by ConQuest
# Please check atom types

@<TRIPOS>MOLECULE
ZAYVUQ
    45    50     1
SMALL
NO_CHARGES
****
Generated from CSD

@<TRIPOS>ATOM
      1 O1        11.0511    2.2221   17.8991 O.3       1 RES1    0.0000
      2 O2        10.7019    0.1154   18.6571 O.2       1 RES1    0.0000
      3 O3         5.9877   -0.9797   19.7872 O.2       1 RES1    0.0000
      4 O4         4.3773    0.3708   19.2381 O.2       1 RES1    0.0000
      5 O5         5.4340    4.4979   16.8398 O.2       1 RES1    0.0000
      6 O6         7.4296    4.7123   16.0446 O.2       1 RES1    0.0000
      7 N1         5.5595    0.0586   19.2862 N.pl3     1 RES1    0.0000
      8 N2         6.6044    4.1357   16.7359 N.pl3     1 RES1    0.0000
      9 C1        14.2911    3.2934   18.8366 C.3       1 RES1    0.0000
     10 C2        14.8936    3.5927   20.2273 C.3       1 RES1    0.0000
     11 H1        14.3547    4.2212   20.7132 H         1 RES1    0.0000
     12 H2        15.7878    3.9348   20.1523 H         1 RES1    0.0000
     13 C3        14.8755    2.1928   20.9059 C.3       1 RES1    0.0000
     14 H3        14.6183    2.2734   21.8275 H         1 RES1    0.0000
     15 H4        15.7484    1.7958   20.8659 H         1 RES1    0.0000
     16 C4        13.8429    1.3096   20.1383 C.3       1 RES1    0.0000
     17 H5        13.2171    0.8991   20.7404 H         1 RES1    0.0000
     18 H6        14.2838    0.6255   19.6294 H         1 RES1    0.0000
     19 C5        13.1575    2.3064   19.2211 C.3       1 RES1    0.0000
     20 H7        12.5164    2.7883   19.7499 H         1 RES1    0.0000
     21 C6        12.5074    2.0114   17.8622 C.3       1 RES1    0.0000
     22 H8        12.7256    1.1281   17.5549 H         1 RES1    0.0000
     23 C7        13.1166    3.0906   16.9490 C.3       1 RES1    0.0000
     24 H9        12.5494    3.3655   16.2250 H         1 RES1    0.0000
     25 C8        13.6132    4.2591   17.8698 C.3       1 RES1    0.0000
     26 H10       12.9370    4.8339   18.2362 H         1 RES1    0.0000
     27 C9        14.7462    4.9304   17.1097 C.3       1 RES1    0.0000
     28 H11       15.2639    5.5125   17.6712 H         1 RES1    0.0000
     29 H12       14.4317    5.4129   16.3416 H         1 RES1    0.0000
     30 C10       15.4956    3.6819   16.7292 C.3       1 RES1    0.0000
     31 H13       16.3161    3.7143   16.2323 H         1 RES1    0.0000
     32 C11       14.4787    2.5867   16.5321 C.3       1 RES1    0.0000
     33 H14       14.5992    1.8776   15.8962 H         1 RES1    0.0000
     34 C12       15.2642    2.6704   17.8430 C.3       1 RES1    0.0000
     35 H15       15.9195    2.0169   18.0977 H         1 RES1    0.0000
     36 C13       10.2911    1.1892   18.2854 C.2       1 RES1    0.0000
     37 C14        8.8295    1.5386   18.2052 C.ar      1 RES1    0.0000
     38 C15        7.8986    0.6713   18.7813 C.ar      1 RES1    0.0000
     39 H16        8.1863   -0.1270   19.2307 H         1 RES1    0.0000
     40 C16        6.5509    0.9901   18.6938 C.ar      1 RES1    0.0000
     41 C17        6.0840    2.1225   18.0583 C.ar      1 RES1    0.0000
     42 H17        5.1487    2.3314   18.0171 H         1 RES1    0.0000
     43 C18        7.0401    2.9386   17.4805 C.ar      1 RES1    0.0000
     44 C19        8.3992    2.6869   17.5484 C.ar      1 RES1    0.0000
     45 H18        9.0318    3.2916   17.1535 H         1 RES1    0.0000
@<TRIPOS>BOND
     1    1   21 1
     2    2   36 2
     3    3    7 2
     4    4    7 2
     5    5    8 2
     6    6    8 2
     7    7   40 1
     8    8   43 1
     9    9   10 1
    10   10   11 1
    11   12   10 1
    12   13   10 1
    13   14   13 1
    14   15   13 1
    15   16   13 1
    16   17   16 1
    17   18   16 1
    18   19    9 1
    19   20   19 1
    20   21   19 1
    21   22   21 1
    22   23   21 1
    23   24   23 1
    24   25    9 1
    25   26   25 1
    26   27   25 1
    27   28   27 1
    28   29   27 1
    29   30   27 1
    30   31   30 1
    31   32   23 1
    32   33   32 1
    33   34    9 1
    34   35   34 1
    35   36    1 1
    36   37   36 1
    37   38   37 ar
    38   39   38 1
    39   40   38 ar
    40   41   40 ar
    41   42   41 1
    42   43   41 ar
    43   44   37 ar
    44   45   44 1
    45   16   19 1
    46   23   25 1
    47   30   32 1
    48   30   34 1
    49   32   34 1
    50   43   44 ar
@<TRIPOS>SUBSTRUCTURE
     1 RES1 1

@<TRIPOS>CRYSIN
  13.1990    6.1080   20.9710  90.0000  92.5300  90.0000  14 1

