# MOL2 file generated by ConQuest
# Please check atom types

@<TRIPOS>MOLECULE
ZAZTUR
    42    43     1
SMALL
NO_CHARGES
****
Generated from CSD

@<TRIPOS>ATOM
      1 O1         2.9270   -0.1714    2.2016 O.3       1 RES1    0.0000
      2 O2         5.5538   -0.0158    4.5057 O.2       1 RES1    0.0000
      3 N1         3.9928    0.3736    2.9352 N.am      1 RES1    0.0000
      4 C1         4.5711    1.5807    2.4088 C.ar      1 RES1    0.0000
      5 C2         5.0294   -2.8026    3.3787 C.ar      1 RES1    0.0000
      6 C3         4.5938   -0.4238    3.8711 C.2       1 RES1    0.0000
      7 C4         1.6042    0.3809    2.6013 C.3       1 RES1    0.0000
      8 C5         4.9826    2.5767    3.2639 C.ar      1 RES1    0.0000
      9 C6         5.6668    3.8992    1.3719 C.ar      1 RES1    0.0000
     10 C7         5.2432    2.8998    0.5243 C.ar      1 RES1    0.0000
     11 C8         4.6977    1.7251    1.0327 C.ar      1 RES1    0.0000
     12 C9         4.0784   -1.8353    4.0466 C.3       1 RES1    0.0000
     13 C10        5.8264   -3.6627    4.1242 C.ar      1 RES1    0.0000
     14 C11        5.5406    3.7364    2.7353 C.ar      1 RES1    0.0000
     15 C12        5.1695   -2.8255    1.9845 C.ar      1 RES1    0.0000
     16 C13        6.8747   -4.5095    2.1483 C.ar      1 RES1    0.0000
     17 C14        6.0850   -3.6629    1.3868 C.ar      1 RES1    0.0000
     18 C15        6.7386   -4.5074    3.5170 C.ar      1 RES1    0.0000
     19 C16        0.6548   -0.6948    2.1291 C.3       1 RES1    0.0000
     20 C17        1.5041    0.5937    4.0891 C.3       1 RES1    0.0000
     21 C18        1.3543    1.6301    1.8260 C.3       1 RES1    0.0000
     22 H1         5.7343    4.3389    3.4821 H         1 RES1    0.0000
     23 H2         5.9671    4.7582    0.8820 H         1 RES1    0.0000
     24 H3         4.5474   -2.2190    1.4946 H         1 RES1    0.0000
     25 H4         7.5402   -5.0574    1.5799 H         1 RES1    0.0000
     26 H5         5.3277    3.0057   -0.4259 H         1 RES1    0.0000
     27 H6         4.3427    1.0705    0.3194 H         1 RES1    0.0000
     28 H7        -0.2474   -0.4408    2.3358 H         1 RES1    0.0000
     29 H8         0.8687   -1.5140    2.5807 H         1 RES1    0.0000
     30 H9         0.7430   -0.8191    1.1810 H         1 RES1    0.0000
     31 H10        0.6388    0.9476    4.3063 H         1 RES1    0.0000
     32 H11        2.1830    1.2096    4.3749 H         1 RES1    0.0000
     33 H12        1.6272   -0.2475    4.5348 H         1 RES1    0.0000
     34 H13        6.1828   -3.6488    0.4317 H         1 RES1    0.0000
     35 H14        7.3368   -5.1156    4.1452 H         1 RES1    0.0000
     36 H15        4.8762    2.4664    4.2113 H         1 RES1    0.0000
     37 H16        0.5022    2.0015    2.0671 H         1 RES1    0.0000
     38 H17        1.3587    1.4208    0.8896 H         1 RES1    0.0000
     39 H18        2.0460    2.2693    2.0145 H         1 RES1    0.0000
     40 H19        3.2120   -1.9163    3.6425 H         1 RES1    0.0000
     41 H20        4.0175   -2.0470    4.9811 H         1 RES1    0.0000
     42 H21        5.7440   -3.6652    5.0802 H         1 RES1    0.0000
@<TRIPOS>BOND
     1    1    3 1
     2    2    6 2
     3    3    4 1
     4    4    8 ar
     5    5   12 1
     6    6    3 1
     7    7    1 1
     8    8   14 ar
     9    9   10 ar
    10   10   11 ar
    11   11    4 ar
    12   12    6 1
    13   13    5 ar
    14   14    9 ar
    15   15    5 ar
    16   16   17 ar
    17   17   15 ar
    18   18   13 ar
    19   19    7 1
    20   20    7 1
    21   21    7 1
    22   22   14 1
    23   23    9 1
    24   24   15 1
    25   25   16 1
    26   26   10 1
    27   27   11 1
    28   28   19 1
    29   29   19 1
    30   30   19 1
    31   31   20 1
    32   32   20 1
    33   33   20 1
    34   34   17 1
    35   35   18 1
    36   36    8 1
    37   37   21 1
    38   38   21 1
    39   39   21 1
    40   40   12 1
    41   41   12 1
    42   42   13 1
    43   16   18 ar
@<TRIPOS>SUBSTRUCTURE
     1 RES1 1

@<TRIPOS>CRYSIN
   7.3861   10.2580   11.4009  69.2610  81.2360  75.6650   2 1

