# MOL2 file generated by ConQuest
# Please check atom types

@<TRIPOS>MOLECULE
ZAZVED
    37    38     1
SMALL
NO_CHARGES
****
Generated from CSD

@<TRIPOS>ATOM
      1 O1        10.9626   -1.4412    5.3951 O.3       1 RES1    0.0000
      2 O2         6.4307   -2.5572    1.7200 O.3       1 RES1    0.0000
      3 O3         8.5097    0.2118    1.8439 O.2       1 RES1    0.0000
      4 N1         7.4460   -1.7333    2.2167 N.am      1 RES1    0.0000
      5 C1         8.4284   -2.3862    3.0217 C.ar      1 RES1    0.0000
      6 C2         9.2594   -1.6335    3.8386 C.ar      1 RES1    0.0000
      7 C3        10.3356   -3.6651    4.6029 C.ar      1 RES1    0.0000
      8 C4         6.4650    1.3649    0.3764 C.ar      1 RES1    0.0000
      9 C5         8.5130   -3.7810    3.0085 C.ar      1 RES1    0.0000
     10 C6         9.4700   -4.3914    3.8026 C.ar      1 RES1    0.0000
     11 C7        10.2124   -2.2801    4.6267 C.ar      1 RES1    0.0000
     12 C8         6.4163   -0.0977    0.7066 C.3       1 RES1    0.0000
     13 C9         7.5572   -0.5011    1.6304 C.2       1 RES1    0.0000
     14 C10        5.6753    2.2668    1.0860 C.ar      1 RES1    0.0000
     15 C11        7.3022    1.8611   -0.6245 C.ar      1 RES1    0.0000
     16 C12       11.9681   -1.9963    6.2384 C.3       1 RES1    0.0000
     17 C13        5.3850   -2.6948    2.7001 C.3       1 RES1    0.0000
     18 C14        5.7419    3.6281    0.8307 C.ar      1 RES1    0.0000
     19 C15        6.5801    4.1049   -0.1571 C.ar      1 RES1    0.0000
     20 C16        7.3510    3.2239   -0.8846 C.ar      1 RES1    0.0000
     21 H1         9.5938   -5.3288    3.7330 H         1 RES1    0.0000
     22 H2         9.2659   -0.6222    3.9186 H         1 RES1    0.0000
     23 H3         7.9591   -4.3610    2.4068 H         1 RES1    0.0000
     24 H4         7.8998    3.6956   -1.5752 H         1 RES1    0.0000
     25 H5        11.0074   -4.1198    5.1163 H         1 RES1    0.0000
     26 H6         6.6284    5.0239   -0.3108 H         1 RES1    0.0000
     27 H7         5.0949    4.2744    1.3285 H         1 RES1    0.0000
     28 H8        12.4131   -1.2923    6.7163 H         1 RES1    0.0000
     29 H9        12.6055   -2.4683    5.6975 H         1 RES1    0.0000
     30 H10       11.5670   -2.6039    6.8641 H         1 RES1    0.0000
     31 H11        5.6308   -0.2803    1.1990 H         1 RES1    0.0000
     32 H12        6.5157   -0.6324   -0.0413 H         1 RES1    0.0000
     33 H13        7.8443    1.2576   -1.1380 H         1 RES1    0.0000
     34 H14        5.0761    1.9484    1.7651 H         1 RES1    0.0000
     35 H15        4.6900   -3.2596    2.3555 H         1 RES1    0.0000
     36 H16        5.0235   -1.8285    2.9019 H         1 RES1    0.0000
     37 H17        5.7478   -3.0841    3.4992 H         1 RES1    0.0000
@<TRIPOS>BOND
     1    1   11 1
     2    2    4 1
     3    3   13 2
     4    4    5 1
     5    5    6 ar
     6    6   11 ar
     7    7   10 ar
     8    8   12 1
     9    9    5 ar
    10   10    9 ar
    11   11    7 ar
    12   12   13 1
    13   13    4 1
    14   14    8 ar
    15   15    8 ar
    16   16    1 1
    17   17    2 1
    18   18   14 ar
    19   19   18 ar
    20   20   15 ar
    21   21   10 1
    22   22    6 1
    23   23    9 1
    24   24   20 1
    25   25    7 1
    26   26   19 1
    27   27   18 1
    28   28   16 1
    29   29   16 1
    30   30   16 1
    31   31   12 1
    32   32   12 1
    33   33   15 1
    34   34   14 1
    35   35   17 1
    36   36   17 1
    37   37   17 1
    38   19   20 ar
@<TRIPOS>SUBSTRUCTURE
     1 RES1 1

@<TRIPOS>CRYSIN
   9.4803   10.1234   15.1953  90.0000 102.7571  90.0000 231 1

