# MOL2 file generated by ConQuest
# Please check atom types

@<TRIPOS>MOLECULE
ZECPIG
    65    70     1
SMALL
NO_CHARGES
****
Generated from CSD

@<TRIPOS>ATOM
      1 O1         0.9930    4.2401    6.2205 O.3       1 RES1    0.0000
      2 O2         2.9136    4.9688    9.0407 O.2       1 RES1    0.0000
      3 O3        -1.6474    0.1044    1.5338 O.2       1 RES1    0.0000
      4 O4         0.3558   -0.7342    1.1678 O.2       1 RES1    0.0000
      5 O5         4.5906    4.2511    4.0208 O.2       1 RES1    0.0000
      6 O6         4.2570    6.4627    3.8155 O.3       1 RES1    0.0000
      7 O7         4.5389    6.3584    6.8106 O.2       1 RES1    0.0000
      8 O8         3.2596    8.1873    6.7786 O.3       1 RES1    0.0000
      9 N1        -0.4219    0.1007    1.6689 N.pl3     1 RES1    0.0000
     10 C1         1.5919    5.2507    7.0565 C.3       1 RES1    0.0000
     11 C2         2.6780    4.5514    7.9237 C.2       1 RES1    0.0000
     12 C3         3.3731    3.4053    7.3141 C.2       1 RES1    0.0000
     13 C4         3.0677    3.1050    6.0409 C.2       1 RES1    0.0000
     14 C5         2.0022    3.8502    5.2775 C.3       1 RES1    0.0000
     15 C6         2.5070    5.2233    4.7701 C.3       1 RES1    0.0000
     16 C7         1.4523    6.0398    3.9825 C.3       1 RES1    0.0000
     17 C8         1.2906    7.0266    5.1448 C.3       1 RES1    0.0000
     18 C9         2.2810    6.1954    6.0097 C.3       1 RES1    0.0000
     19 C10        0.5158    5.8311    7.9370 C.ar      1 RES1    0.0000
     20 C11        0.4605    7.1603    8.2765 C.ar      1 RES1    0.0000
     21 C12       -0.5303    7.6473    9.1196 C.ar      1 RES1    0.0000
     22 C13       -1.4623    6.7868    9.6386 C.ar      1 RES1    0.0000
     23 C14       -1.4089    5.4521    9.3303 C.ar      1 RES1    0.0000
     24 C15       -0.4270    4.9670    8.4928 C.ar      1 RES1    0.0000
     25 C16        4.4015    2.6492    8.0650 C.ar      1 RES1    0.0000
     26 C17        5.3588    3.2954    8.8300 C.ar      1 RES1    0.0000
     27 C18        6.3327    2.5851    9.5013 C.ar      1 RES1    0.0000
     28 C19        6.3581    1.2083    9.4193 C.ar      1 RES1    0.0000
     29 C20        5.4290    0.5511    8.6637 C.ar      1 RES1    0.0000
     30 C21        4.4444    1.2669    7.9979 C.ar      1 RES1    0.0000
     31 C22        1.3390    2.9751    4.2347 C.ar      1 RES1    0.0000
     32 C23        2.1126    2.3068    3.2745 C.ar      1 RES1    0.0000
     33 C24        1.5351    1.4152    2.4143 C.ar      1 RES1    0.0000
     34 C25        0.1841    1.1790    2.4947 C.ar      1 RES1    0.0000
     35 C26       -0.6313    1.8876    3.3604 C.ar      1 RES1    0.0000
     36 C27       -0.0256    2.7755    4.2362 C.ar      1 RES1    0.0000
     37 C28        3.8932    5.2159    4.1730 C.2       1 RES1    0.0000
     38 C29        5.5933    6.6055    3.2628 C.3       1 RES1    0.0000
     39 C30        3.5056    6.8930    6.5616 C.2       1 RES1    0.0000
     40 C31        4.3315    8.9526    7.3765 C.3       1 RES1    0.0000
     41 H1         3.6144    2.3617    5.6202 H         1 RES1    0.0000
     42 H2         0.6664    5.5290    3.8405 H         1 RES1    0.0000
     43 H3         1.8405    6.4261    3.1458 H         1 RES1    0.0000
     44 H4         0.2840    7.1950    5.4173 H         1 RES1    0.0000
     45 H5         1.7225    7.8724    4.9567 H         1 RES1    0.0000
     46 H6         1.0474    7.7992    7.9463 H         1 RES1    0.0000
     47 H7        -0.5032    8.6414    9.3202 H         1 RES1    0.0000
     48 H8        -2.1392    7.1950   10.1788 H         1 RES1    0.0000
     49 H9        -1.9761    4.9249    9.6168 H         1 RES1    0.0000
     50 H10       -0.4252    4.1193    8.2117 H         1 RES1    0.0000
     51 H11        5.2774    4.2841    8.8128 H         1 RES1    0.0000
     52 H12        6.9531    3.1307   10.0383 H         1 RES1    0.0000
     53 H13        7.2201    0.7140    9.8510 H         1 RES1    0.0000
     54 H14        5.4204   -0.4760    8.6255 H         1 RES1    0.0000
     55 H15        3.7973    0.8239    7.4936 H         1 RES1    0.0000
     56 H16        3.0627    2.4350    3.2472 H         1 RES1    0.0000
     57 H17        1.9912    0.8422    1.7641 H         1 RES1    0.0000
     58 H18       -1.5637    1.7393    3.3955 H         1 RES1    0.0000
     59 H19       -0.5628    3.2405    4.8162 H         1 RES1    0.0000
     60 H20        5.5491    6.4627    2.4198 H         1 RES1    0.0000
     61 H21        6.1962    6.1698    3.7468 H         1 RES1    0.0000
     62 H22        5.7203    7.4880    3.3565 H         1 RES1    0.0000
     63 H23        4.5897    8.4400    8.2742 H         1 RES1    0.0000
     64 H24        5.0426    8.9343    6.7599 H         1 RES1    0.0000
     65 H25        3.9213    9.8680    7.4936 H         1 RES1    0.0000
@<TRIPOS>BOND
     1    1   10 1
     2    2   11 2
     3    3    9 2
     4    4    9 2
     5    5   37 2
     6    6   37 1
     7    7   39 2
     8    8   39 1
     9    9   34 1
    10   10   11 1
    11   11   12 1
    12   12   13 2
    13   13   14 1
    14   14    1 1
    15   15   14 1
    16   16   15 1
    17   17   16 1
    18   18   10 1
    19   19   10 1
    20   20   19 ar
    21   21   20 ar
    22   22   21 ar
    23   23   22 ar
    24   24   19 ar
    25   25   12 1
    26   26   25 ar
    27   27   26 ar
    28   28   27 ar
    29   29   28 ar
    30   30   25 ar
    31   31   14 1
    32   32   31 ar
    33   33   32 ar
    34   34   33 ar
    35   35   34 ar
    36   36   31 ar
    37   37   15 1
    38   38    6 1
    39   39   18 1
    40   40    8 1
    41   41   13 1
    42   42   16 1
    43   43   16 1
    44   44   17 1
    45   45   17 1
    46   46   20 1
    47   47   21 1
    48   48   22 1
    49   49   23 1
    50   50   24 1
    51   51   26 1
    52   52   27 1
    53   53   28 1
    54   54   29 1
    55   55   30 1
    56   56   32 1
    57   57   33 1
    58   58   35 1
    59   59   36 1
    60   60   38 1
    61   61   38 1
    62   62   38 1
    63   63   40 1
    64   64   40 1
    65   65   40 1
    66   15   18 1
    67   17   18 1
    68   23   24 ar
    69   29   30 ar
    70   35   36 ar
@<TRIPOS>SUBSTRUCTURE
     1 RES1 1

@<TRIPOS>CRYSIN
  17.7220   18.3080    7.8060  90.0000  90.3700  90.0000 231 1

