# MOL2 file generated by ConQuest
# Please check atom types

@<TRIPOS>MOLECULE
ZEDMAZ
    35    38     1
SMALL
NO_CHARGES
****
Generated from CSD

@<TRIPOS>ATOM
      1 O1         4.3144   10.4018    9.1796 O.3       1 RES1    0.0000
      2 C1         4.0117    8.9499   11.5338 C.2       1 RES1    0.0000
      3 O2         2.5966    7.4762   12.8038 O.3       1 RES1    0.0000
      4 C2         6.4527   11.1927    9.7636 C.ar      1 RES1    0.0000
      5 H1         6.4639   11.6518    8.9547 H         1 RES1    0.0000
      6 C3         5.2555    9.7047   11.3089 C.ar      1 RES1    0.0000
      7 C4         3.0335    8.9285   10.6069 C.2       1 RES1    0.0000
      8 H2         2.2650    8.4171   10.7188 H         1 RES1    0.0000
      9 C5         7.5113   10.4966   11.8842 C.ar      1 RES1    0.0000
     10 H3         8.2227   10.5461   12.4817 H         1 RES1    0.0000
     11 N1         4.6761    7.9201   13.7959 N.2       1 RES1    0.0000
     12 C6         5.3632   10.4481   10.1410 C.ar      1 RES1    0.0000
     13 C7         6.4130    9.7441   12.1289 C.ar      1 RES1    0.0000
     14 H4         6.4179    9.2133   12.8923 H         1 RES1    0.0000
     15 C8         3.8384    8.1655   12.7140 C.2       1 RES1    0.0000
     16 C9         7.5029   11.2348   10.6008 C.ar      1 RES1    0.0000
     17 H5         8.2460   11.7433   10.3672 H         1 RES1    0.0000
     18 O3         2.2775    9.7001    8.4986 O.2       1 RES1    0.0000
     19 C10        3.2476    9.7712    9.3862 C.2       1 RES1    0.0000
     20 N2         2.5591    6.7611   14.0184 N.2       1 RES1    0.0000
     21 C11        5.4825    6.9572   16.3345 C.ar      1 RES1    0.0000
     22 H6         6.0377    7.5168   15.8403 H         1 RES1    0.0000
     23 C12        4.3021    6.6008   15.8833 C.ar      1 RES1    0.0000
     24 C13        3.8726    7.1419   14.5839 C.2       1 RES1    0.0000
     25 C14        5.8992    6.4379   17.6536 C.ar      1 RES1    0.0000
     26 C15        3.7548    5.2744   17.7679 C.ar      1 RES1    0.0000
     27 H7         3.1991    4.7273   18.2757 H         1 RES1    0.0000
     28 C16        5.0880    5.6057   18.2916 C.ar      1 RES1    0.0000
     29 H8         5.3698    5.2219   19.0907 H         1 RES1    0.0000
     30 C17        3.3252    5.7088   16.6369 C.ar      1 RES1    0.0000
     31 H9         2.4822    5.4965   16.3062 H         1 RES1    0.0000
     32 C18        7.1969    6.6945   18.0913 C.3       1 RES1    0.0000
     33 H10        7.6428    7.2584   17.4581 H         1 RES1    0.0000
     34 H11        7.6754    5.8629   18.1724 H         1 RES1    0.0000
     35 H12        7.1667    7.1279   18.9457 H         1 RES1    0.0000
@<TRIPOS>BOND
     1    1   12 1
     2    2    6 1
     3    3   15 1
     4    4    5 1
     5    6   12 ar
     6    7    2 2
     7    8    7 1
     8    9   10 1
     9   11   15 2
    10   12    4 ar
    11   13    6 ar
    12   14   13 1
    13   15    2 1
    14   16    4 ar
    15   17   16 1
    16   18   19 2
    17   19    1 1
    18   20    3 1
    19   21   22 1
    20   23   21 ar
    21   24   11 1
    22   25   21 ar
    23   26   27 1
    24   28   25 ar
    25   29   28 1
    26   30   23 ar
    27   31   30 1
    28   32   25 1
    29   33   32 1
    30   34   32 1
    31   35   32 1
    32    7   19 1
    33    9   13 ar
    34    9   16 ar
    35   20   24 2
    36   23   24 1
    37   26   28 ar
    38   26   30 ar
@<TRIPOS>SUBSTRUCTURE
     1 RES1 1

@<TRIPOS>CRYSIN
   7.7250    8.9012   12.6079  78.1610  84.6330  87.4620   2 1

