# MOL2 file generated by ConQuest
# Please check atom types

@<TRIPOS>MOLECULE
ZEDVAI
    39    42     1
SMALL
NO_CHARGES
****
Generated from CSD

@<TRIPOS>ATOM
      1 C1         4.0971   -1.6864   11.9816 C.ar      1 RES1    0.0000
      2 H1         4.0679   -1.6450   12.9103 H         1 RES1    0.0000
      3 O1         0.2824    0.3569    8.6568 O.2       1 RES1    0.0000
      4 O2         2.1753   -0.7269    8.9968 O.3       1 RES1    0.0000
      5 O3         6.3653   -2.9213    9.4770 O.3       1 RES1    0.0000
      6 O4         2.3045   -0.9952   14.1049 O.3       1 RES1    0.0000
      7 N1         0.4335    0.0926   13.7010 N.2       1 RES1    0.0000
      8 C2         1.8111   -0.5662   11.7543 C.2       1 RES1    0.0000
      9 N2         1.7015   -0.7507   15.3593 N.2       1 RES1    0.0000
     10 C3        -0.3368    0.3567   16.0726 C.ar      1 RES1    0.0000
     11 C4         5.1858   -2.2460   11.3707 C.ar      1 RES1    0.0000
     12 H2         5.8884   -2.5718   11.8859 H         1 RES1    0.0000
     13 C5         3.0167   -1.1704   11.2324 C.ar      1 RES1    0.0000
     14 C6        -0.9493    0.7007   18.3675 C.ar      1 RES1    0.0000
     15 H3        -0.7496    0.6352   19.2738 H         1 RES1    0.0000
     16 C7         3.1367   -1.2426    9.8411 C.ar      1 RES1    0.0000
     17 C8         4.2186   -1.8241    9.1927 C.ar      1 RES1    0.0000
     18 H4         4.2513   -1.8720    8.2649 H         1 RES1    0.0000
     19 C9         6.4385   -3.1120    8.0493 C.3       1 RES1    0.0000
     20 H5         6.4529   -2.2545    7.5968 H         1 RES1    0.0000
     21 H6         5.6684   -3.6125    7.7370 H         1 RES1    0.0000
     22 C10        1.4830   -0.4633   13.1859 C.2       1 RES1    0.0000
     23 C11        7.7011   -3.8709    7.7659 C.3       1 RES1    0.0000
     24 H7         7.7819   -4.0168    6.8199 H         1 RES1    0.0000
     25 H8         7.6746   -4.7167    8.2191 H         1 RES1    0.0000
     26 H9         8.4553   -3.3648    8.0775 H         1 RES1    0.0000
     27 C12       -2.4724    1.3187   16.6234 C.ar      1 RES1    0.0000
     28 H10       -3.2907    1.6694   16.3538 H         1 RES1    0.0000
     29 C13       -2.1654    1.2351   17.9715 C.ar      1 RES1    0.0000
     30 H11       -2.7725    1.5366   18.6086 H         1 RES1    0.0000
     31 C14        1.0504   -0.1013    9.4684 C.2       1 RES1    0.0000
     32 C15       -1.5593    0.8799   15.6749 C.ar      1 RES1    0.0000
     33 H12       -1.7669    0.9364   14.7701 H         1 RES1    0.0000
     34 C16        5.2483   -2.3318    9.9705 C.ar      1 RES1    0.0000
     35 C17        0.8844   -0.0601   10.9032 C.2       1 RES1    0.0000
     36 H13        0.1154    0.3265   11.2550 H         1 RES1    0.0000
     37 C18        0.6132   -0.1061   15.0521 C.2       1 RES1    0.0000
     38 C19       -0.0273    0.2622   17.4296 C.ar      1 RES1    0.0000
     39 H14        0.7889   -0.0909   17.7015 H         1 RES1    0.0000
@<TRIPOS>BOND
     1    1    2 1
     2    3   31 2
     3    4   16 1
     4    5   19 1
     5    6    9 1
     6    7   22 2
     7    8   13 1
     8    9   37 2
     9   10   32 ar
    10   11    1 ar
    11   12   11 1
    12   13    1 ar
    13   14   15 1
    14   16   13 ar
    15   17   16 ar
    16   18   17 1
    17   19   20 1
    18   21   19 1
    19   22    6 1
    20   23   19 1
    21   24   23 1
    22   25   23 1
    23   26   23 1
    24   27   28 1
    25   29   14 ar
    26   30   29 1
    27   31    4 1
    28   32   27 ar
    29   33   32 1
    30   34    5 1
    31   35    8 2
    32   36   35 1
    33   37    7 1
    34   38   10 ar
    35   39   38 1
    36    8   22 1
    37   10   37 1
    38   11   34 ar
    39   14   38 ar
    40   17   34 ar
    41   27   29 ar
    42   31   35 1
@<TRIPOS>SUBSTRUCTURE
     1 RES1 1

@<TRIPOS>CRYSIN
   6.6736    7.9834   14.6236  97.9250  97.9360  96.4470   2 1

