# MOL2 file generated by ConQuest
# Please check atom types

@<TRIPOS>MOLECULE
ZEHDAT
    34    33     2
SMALL
NO_CHARGES
****
Generated from CSD

@<TRIPOS>ATOM
      1 C1         8.4797   -0.9371    1.6560 C.2       1 RES1    0.0000
      2 C2         8.2579   -1.8169    2.7456 C.2       1 RES1    0.0000
      3 H1         7.4188   -1.8614    3.1886 H         1 RES1    0.0000
      4 C3         9.3157   -2.5993    3.1275 C.2       1 RES1    0.0000
      5 H2         9.2043   -3.2011    3.8546 H         1 RES1    0.0000
      6 C4        10.5783   -2.5400    2.4689 C.2       1 RES1    0.0000
      7 H3        11.2815   -3.1000    2.7751 H         1 RES1    0.0000
      8 C5        10.8116   -1.7026    1.4089 C.2       1 RES1    0.0000
      9 H4        11.6548   -1.6704    0.9719 H         1 RES1    0.0000
     10 C6         9.7299   -0.8897    1.0012 C.2       1 RES1    0.0000
     11 C7         7.8621    1.3778   -0.8920 C.3       1 RES1    0.0000
     12 C8         6.7347    2.2346   -0.3200 C.3       1 RES1    0.0000
     13 H5         6.2348    2.6597   -1.0602 H         1 RES1    0.0000
     14 H6         6.1068    1.6601    0.1846 H         1 RES1    0.0000
     15 C9         7.2928    3.3141    0.6043 C.3       1 RES1    0.0000
     16 H7         6.5500    3.8821    0.9311 H         1 RES1    0.0000
     17 H8         7.7180    2.8859    1.3887 H         1 RES1    0.0000
     18 C10        8.3190    4.1875   -0.1116 C.3       1 RES1    0.0000
     19 H9         8.6737    4.8671    0.5143 H         1 RES1    0.0000
     20 H10        7.8874    4.6590   -0.8677 H         1 RES1    0.0000
     21 C11        9.4640    3.3213   -0.6326 C.3       1 RES1    0.0000
     22 H11        9.9361    2.9047    0.1314 H         1 RES1    0.0000
     23 H12       10.1116    3.8889   -1.1214 H         1 RES1    0.0000
     24 C12        8.9379    2.2294   -1.5642 C.3       1 RES1    0.0000
     25 H13        8.5610    2.6486   -2.3776 H         1 RES1    0.0000
     26 H14        9.6891    1.6472   -1.8418 H         1 RES1    0.0000
     27 N1         7.6494   -0.0455    1.0662 N.2       1 RES1    0.0000
     28 N2         8.4242    0.4931    0.1213 N.pl3     1 RES1    0.0000
     29 N3         9.6716    0.0294    0.0129 N.2       1 RES1    0.0000
     30 N4         7.2527    0.5516   -2.0255 N.2       1 RES1    0.0000
     31 O1         7.4187   -0.6382   -1.9308 O.2       1 RES1    0.0000
     32 N5         7.2993    0.3512   -1.9030 Du        2 SUP2    0.0000
     33 O2         6.6992    0.8814   -2.7502 Du        2 SUP2    0.0000
     34 O3         7.5384   -0.7966   -1.6651 Du        2 SUP2    0.0000
@<TRIPOS>BOND
     1    1    2 1
     2    2    3 1
     3    4    2 2
     4    5    4 1
     5    6    4 1
     6    7    6 1
     7    8    6 2
     8    9    8 1
     9   10    1 1
    10   11   12 1
    11   12   13 1
    12   14   12 1
    13   15   12 1
    14   16   15 1
    15   17   15 1
    16   18   15 1
    17   19   18 1
    18   20   18 1
    19   21   18 1
    20   22   21 1
    21   23   21 1
    22   24   11 1
    23   25   24 1
    24   26   24 1
    25   27    1 2
    26   28   11 1
    27   29   10 2
    28   30   11 1
    29   31   30 2
    30    8   10 1
    31   21   24 1
    32   27   28 1
    33   28   29 1
@<TRIPOS>SUBSTRUCTURE
     1 RES1 1
     2 SUP2 32

@<TRIPOS>CRYSIN
  11.7352    8.5659   12.1021  90.0000 110.6160  90.0000  14 1

