# MOL2 file generated by ConQuest
# Please check atom types

@<TRIPOS>MOLECULE
ZEHJUR
    38    39     1
SMALL
NO_CHARGES
****
Generated from CSD

@<TRIPOS>ATOM
      1 N1         4.6767    2.4227   11.8496 N.2       1 RES1    0.0000
      2 N2         4.6501    3.3695   12.8782 N.2       1 RES1    0.0000
      3 N3         4.7634   -2.6754    8.0752 N.pl3     1 RES1    0.0000
      4 N4         4.9506    8.4582   16.6817 N.pl3     1 RES1    0.0000
      5 O1         4.6401   -2.3081    6.9145 O.2       1 RES1    0.0000
      6 O2         4.8339   -3.8607    8.3951 O.2       1 RES1    0.0000
      7 O3         5.0013    9.6367   16.3656 O.2       1 RES1    0.0000
      8 O4         5.0065    8.0772   17.8352 O.2       1 RES1    0.0000
      9 C1         5.0135    1.2424   12.2100 C.2       1 RES1    0.0000
     10 C2         4.9617    0.2127   11.1318 C.ar      1 RES1    0.0000
     11 C3         5.3036   -1.1126   11.3908 C.ar      1 RES1    0.0000
     12 C4         5.2278   -2.0581   10.3890 C.ar      1 RES1    0.0000
     13 C5         4.8355   -1.6770    9.1332 C.ar      1 RES1    0.0000
     14 C6         4.5259   -0.3755    8.8324 C.ar      1 RES1    0.0000
     15 C7         4.5918    0.5710    9.8364 C.ar      1 RES1    0.0000
     16 C8         5.4293    0.8461   13.5953 C.3       1 RES1    0.0000
     17 C9         4.8722    4.5690   12.5160 C.2       1 RES1    0.0000
     18 C10        4.8066    5.5885   13.5890 C.ar      1 RES1    0.0000
     19 C11        4.8079    5.1983   14.9324 C.ar      1 RES1    0.0000
     20 C12        4.8317    6.1264   15.9476 C.ar      1 RES1    0.0000
     21 C13        4.8434    7.4637   15.6085 C.ar      1 RES1    0.0000
     22 C14        4.7966    7.8903   14.3083 C.ar      1 RES1    0.0000
     23 C15        4.7839    6.9516   13.2973 C.ar      1 RES1    0.0000
     24 C16        5.2198    4.9870   11.1251 C.3       1 RES1    0.0000
     25 H1         5.6312   -1.4024   12.3818 H         1 RES1    0.0000
     26 H2         5.4734   -3.0945   10.5757 H         1 RES1    0.0000
     27 H3         4.2366   -0.1159    7.8264 H         1 RES1    0.0000
     28 H4         4.3550    1.5994    9.6325 H         1 RES1    0.0000
     29 H5         4.7892    0.0579   13.9671 H         1 RES1    0.0000
     30 H6         5.3681    1.7037   14.2481 H         1 RES1    0.0000
     31 H7         6.4470    0.5100   13.5056 H         1 RES1    0.0000
     32 H8         4.7629    4.1491   15.1912 H         1 RES1    0.0000
     33 H9         4.8550    5.8297   16.9773 H         1 RES1    0.0000
     34 H10        4.7366    8.9473   14.0675 H         1 RES1    0.0000
     35 H11        4.7892    7.2900   12.2614 H         1 RES1    0.0000
     36 H12        4.4997    5.7022   10.7362 H         1 RES1    0.0000
     37 H13        5.2497    4.1260   10.4753 H         1 RES1    0.0000
     38 H14        6.1970    5.4356   11.1978 H         1 RES1    0.0000
@<TRIPOS>BOND
     1    1    2 1
     2    2   17 2
     3    3    5 2
     4    4    7 2
     5    6    3 2
     6    8    4 2
     7    9    1 2
     8   10    9 1
     9   11   10 ar
    10   12   11 ar
    11   13    3 1
    12   14   13 ar
    13   15   10 ar
    14   16    9 1
    15   17   18 1
    16   18   19 ar
    17   19   20 ar
    18   20   21 ar
    19   21    4 1
    20   22   21 ar
    21   23   18 ar
    22   24   17 1
    23   25   11 1
    24   26   12 1
    25   27   14 1
    26   28   15 1
    27   29   16 1
    28   30   16 1
    29   31   16 1
    30   32   19 1
    31   33   20 1
    32   34   22 1
    33   35   23 1
    34   36   24 1
    35   37   24 1
    36   38   24 1
    37   12   13 ar
    38   14   15 ar
    39   22   23 ar
@<TRIPOS>SUBSTRUCTURE
     1 RES1 1

@<TRIPOS>CRYSIN
  13.1571   11.5898   20.0677  90.0000  90.0000  90.0000  60 1

