# MOL2 file generated by ConQuest
# Please check atom types

@<TRIPOS>MOLECULE
ZEJSIQ
    45    43     2
SMALL
NO_CHARGES
****
Generated from CSD

@<TRIPOS>ATOM
      1 C1         0.0341   -0.8853    1.4981 C.3       1 RES1    0.0000
      2 C2         1.3051   -0.7326    0.7096 C.2       1 RES1    0.0000
      3 C3         2.4622   -0.0574    1.3533 C.3       1 RES1    0.0000
      4 C4         2.0267    1.0760    2.2442 C.3       1 RES1    0.0000
      5 C5         0.8961    0.6162    3.1432 C.3       1 RES1    0.0000
      6 O1        -0.1916    0.2215    2.3335 O.3       1 RES1    0.0000
      7 C6         0.3601    1.7381    3.9741 C.2       1 RES1    0.0000
      8 N1         1.4512   -1.1770   -0.4587 N.2       1 RES1    0.0000
      9 O2         0.3234   -1.8744   -0.8699 O.3       1 RES1    0.0000
     10 O3         3.3394    0.4938    0.3950 O.3       1 RES1    0.0000
     11 C7         4.5539   -0.0527    0.2841 C.2       1 RES1    0.0000
     12 O4         4.8973   -1.0028    0.8953 O.2       1 RES1    0.0000
     13 C8         5.3937    0.7041   -0.6695 C.3       1 RES1    0.0000
     14 O5         3.1936    1.4110    2.9906 O.3       1 RES1    0.0000
     15 C9         3.3711    2.7127    3.2958 C.2       1 RES1    0.0000
     16 O6         2.5058    3.5014    3.1791 O.2       1 RES1    0.0000
     17 C10        4.7366    2.9697    3.7855 C.3       1 RES1    0.0000
     18 O7        -0.4253    2.5497    3.5875 O.2       1 RES1    0.0000
     19 O8         0.8763    1.7244    5.1701 O.3       1 RES1    0.0000
     20 C11        0.5085    2.8315    6.0202 C.3       1 RES1    0.0000
     21 N2         0.0399   -2.1243    2.2122 N.pl3     1 RES1    0.0000
     22 N3         1.1197   -2.4948    2.9250 N.2       1 RES1    0.0000
     23 C12        0.7895   -3.6677    3.4125 C.2       1 RES1    0.0000
     24 C13       -0.4851   -4.0518    3.0033 C.2       1 RES1    0.0000
     25 C14       -0.9328   -3.0528    2.2431 C.2       1 RES1    0.0000
     26 H1        -0.7499   -0.8594    0.9238 H         1 RES1    0.0000
     27 H2         2.9533   -0.6981    1.8979 H         1 RES1    0.0000
     28 H3         1.7746    1.7974    1.6434 H         1 RES1    0.0000
     29 H4         1.1697   -0.0817    3.7661 H         1 RES1    0.0000
     30 H5         0.4432   -1.9070   -1.6670 H         1 RES1    0.0000
     31 H6         4.8111    0.4640   -1.4350 H         1 RES1    0.0000
     32 H7         5.3419    1.6819   -0.5009 H         1 RES1    0.0000
     33 H8         6.0433    0.9261    0.1232 H         1 RES1    0.0000
     34 H9         5.0062    2.2864    4.4497 H         1 RES1    0.0000
     35 H10        4.8784    3.8846    4.1397 H         1 RES1    0.0000
     36 H11        5.2190    2.8410    2.9295 H         1 RES1    0.0000
     37 H12        1.0000    3.6217    5.6887 H         1 RES1    0.0000
     38 H13        0.7959    2.5821    6.9328 H         1 RES1    0.0000
     39 H14       -0.4698    2.9695    5.9771 H         1 RES1    0.0000
     40 H15        1.3650   -4.1724    4.0402 H         1 RES1    0.0000
     41 H16       -1.0203   -4.8824    3.0373 H         1 RES1    0.0000
     42 H17       -1.7678   -2.8789    1.7429 H         1 RES1    0.0000
     43 H18        6.3213    0.3844   -0.8130 Du        2 SUP2    0.0000
     44 H19        4.9933    1.5903   -1.1147 Du        2 SUP2    0.0000
     45 H20        5.8970    0.1185   -1.3149 Du        2 SUP2    0.0000
@<TRIPOS>BOND
     1    1    2 1
     2    2    3 1
     3    3    4 1
     4    4    5 1
     5    5    6 1
     6    6    1 1
     7    7    5 1
     8    8    2 2
     9    9    8 1
    10   10    3 1
    11   11   10 1
    12   12   11 2
    13   13   11 1
    14   14    4 1
    15   15   14 1
    16   16   15 2
    17   17   15 1
    18   18    7 2
    19   19    7 1
    20   20   19 1
    21   21    1 1
    22   22   21 1
    23   23   22 2
    24   24   23 1
    25   25   21 1
    26   26    1 1
    27   27    3 1
    28   28    4 1
    29   29    5 1
    30   30    9 1
    31   31   13 1
    32   32   13 1
    33   33   13 1
    34   34   17 1
    35   35   17 1
    36   36   17 1
    37   37   20 1
    38   38   20 1
    39   39   20 1
    40   40   23 1
    41   41   24 1
    42   42   25 1
    43   24   25 2
@<TRIPOS>SUBSTRUCTURE
     1 RES1 1
     2 SUP2 43

@<TRIPOS>CRYSIN
   8.2640    9.9580   10.8310  90.0000 108.6100  90.0000   4 1

