# MOL2 file generated by ConQuest
# Please check atom types

@<TRIPOS>MOLECULE
ZEJVAL
    47    49     1
SMALL
NO_CHARGES
****
Generated from CSD

@<TRIPOS>ATOM
      1 C1        11.9479   -0.2536    2.1557 C.2       1 RES1    0.0000
      2 N1        11.4952    0.8987    2.4693 N.2       1 RES1    0.0000
      3 N2        10.1213    1.0516    2.3177 N.3       1 RES1    0.0000
      4 C2         9.5156    2.2054    2.6937 C.ar      1 RES1    0.0000
      5 C3        10.1946    3.3055    3.1812 C.ar      1 RES1    0.0000
      6 C4         9.5251    4.4379    3.5840 C.ar      1 RES1    0.0000
      7 C5         8.1289    4.4843    3.4591 C.ar      1 RES1    0.0000
      8 C6         7.4339    3.4070    2.9442 C.ar      1 RES1    0.0000
      9 C7         8.1002    2.2704    2.5696 C.ar      1 RES1    0.0000
     10 N3         7.4339    5.6473    3.9147 N.pl3     1 RES1    0.0000
     11 O1         8.0460    6.5510    4.5047 O.2       1 RES1    0.0000
     12 O2         6.2035    5.6902    3.7229 O.2       1 RES1    0.0000
     13 C8        13.3696   -0.6051    2.1535 C.ar      1 RES1    0.0000
     14 C9        13.7522   -1.9046    1.9127 C.ar      1 RES1    0.0000
     15 C10       15.0783   -2.2925    1.7990 C.ar      1 RES1    0.0000
     16 C11       16.0984   -1.3181    1.9700 C.ar      1 RES1    0.0000
     17 C12       15.7063    0.0043    2.2568 C.ar      1 RES1    0.0000
     18 C13       14.3706    0.3622    2.3318 C.ar      1 RES1    0.0000
     19 N4        17.4277   -1.6796    1.8369 N.3       1 RES1    0.0000
     20 C14       17.7975   -2.8440    1.0537 C.3       1 RES1    0.0000
     21 C15       18.1035   -4.0728    1.8979 C.3       1 RES1    0.0000
     22 C16       19.4424   -3.9821    2.6291 C.3       1 RES1    0.0000
     23 C17       19.6592   -2.7176    3.4339 C.3       1 RES1    0.0000
     24 C18       19.8090   -1.4624    2.5615 C.3       1 RES1    0.0000
     25 C19       18.4892   -0.7337    2.2308 C.3       1 RES1    0.0000
     26 H1        11.3167   -0.9323    1.9046 H         1 RES1    0.0000
     27 H2         9.6335    0.3779    1.9737 H         1 RES1    0.0000
     28 H3        11.1509    3.2784    3.2429 H         1 RES1    0.0000
     29 H4        10.0097    5.1880    3.9384 H         1 RES1    0.0000
     30 H5         6.4808    3.4556    2.8416 H         1 RES1    0.0000
     31 H6         7.6125    1.5181    2.2263 H         1 RES1    0.0000
     32 H7        13.0668   -2.5718    1.8228 H         1 RES1    0.0000
     33 H8        15.3078   -3.2041    1.6029 H         1 RES1    0.0000
     34 H9        16.3789    0.6708    2.4143 H         1 RES1    0.0000
     35 H10       14.1315    1.2766    2.5013 H         1 RES1    0.0000
     36 H11       18.5753   -2.6268    0.5343 H         1 RES1    0.0000
     37 H12       17.0866   -3.0491    0.4421 H         1 RES1    0.0000
     38 H13       18.1099   -4.8443    1.3272 H         1 RES1    0.0000
     39 H14       17.3990   -4.1900    2.5399 H         1 RES1    0.0000
     40 H15       19.5093   -4.7308    3.2258 H         1 RES1    0.0000
     41 H16       20.1501   -4.0621    1.9856 H         1 RES1    0.0000
     42 H17       18.9164   -2.5940    4.0298 H         1 RES1    0.0000
     43 H18       20.4497   -2.8190    3.9689 H         1 RES1    0.0000
     44 H19       20.3892   -0.8451    3.0118 H         1 RES1    0.0000
     45 H20       20.2362   -1.7146    1.7396 H         1 RES1    0.0000
     46 H21       18.2023   -0.2243    2.9925 H         1 RES1    0.0000
     47 H22       18.6423   -0.1222    1.5063 H         1 RES1    0.0000
@<TRIPOS>BOND
     1    1    2 2
     2    2    3 1
     3    3    4 1
     4    4    5 ar
     5    5    6 ar
     6    6    7 ar
     7    7    8 ar
     8    8    9 ar
     9    9    4 ar
    10   10    7 1
    11   11   10 2
    12   12   10 2
    13   13    1 1
    14   14   13 ar
    15   15   14 ar
    16   16   15 ar
    17   17   16 ar
    18   18   13 ar
    19   19   16 1
    20   20   19 1
    21   21   20 1
    22   22   21 1
    23   23   22 1
    24   24   23 1
    25   25   19 1
    26   26    1 1
    27   27    3 1
    28   28    5 1
    29   29    6 1
    30   30    8 1
    31   31    9 1
    32   32   14 1
    33   33   15 1
    34   34   17 1
    35   35   18 1
    36   36   20 1
    37   37   20 1
    38   38   21 1
    39   39   21 1
    40   40   22 1
    41   41   22 1
    42   42   23 1
    43   43   23 1
    44   44   24 1
    45   45   24 1
    46   46   25 1
    47   47   25 1
    48   17   18 ar
    49   24   25 1
@<TRIPOS>SUBSTRUCTURE
     1 RES1 1

@<TRIPOS>CRYSIN
  31.8780    7.1440    7.4310  90.0000  90.0000  90.0000  29 1

