# MOL2 file generated by ConQuest
# Please check atom types

@<TRIPOS>MOLECULE
ZEJWUJ
    32    33     1
SMALL
NO_CHARGES
****
Generated from CSD

@<TRIPOS>ATOM
      1 O1        10.5401    7.4285    2.7321 O.2       1 RES1    0.0000
      2 O2         9.0416    6.1336    0.6218 O.2       1 RES1    0.0000
      3 O3         8.2955    5.3832    2.5084 O.2       1 RES1    0.0000
      4 O4         5.4392    8.2142    1.9331 O.2       1 RES1    0.0000
      5 O5         6.0306    6.4123    0.7403 O.3       1 RES1    0.0000
      6 N1        10.2096    9.6114    3.3530 N.am      1 RES1    0.0000
      7 N2         8.4221    6.2488    1.6582 N.pl3     1 RES1    0.0000
      8 C1         9.1452   10.5243    3.3401 C.ar      1 RES1    0.0000
      9 C2         9.1663   11.8310    3.7716 C.ar      1 RES1    0.0000
     10 H1         9.9359   12.2073    4.1339 H         1 RES1    0.0000
     11 C3         7.9925   12.5672    3.6458 C.ar      1 RES1    0.0000
     12 H2         7.9744   13.4512    3.9354 H         1 RES1    0.0000
     13 C4         6.8607   12.0107    3.1003 C.ar      1 RES1    0.0000
     14 H3         6.0898   12.5250    3.0213 H         1 RES1    0.0000
     15 C5         6.8505   10.6902    2.6648 C.ar      1 RES1    0.0000
     16 H4         6.0817   10.3250    2.2905 H         1 RES1    0.0000
     17 C6         7.9998    9.9230    2.7943 C.ar      1 RES1    0.0000
     18 C7         8.3674    8.5538    2.4479 C.2       1 RES1    0.0000
     19 C8         9.8430    8.4071    2.8437 C.2       1 RES1    0.0000
     20 C9        11.5494    9.8910    3.8415 C.3       1 RES1    0.0000
     21 H5        11.8950   10.6709    3.4004 H         1 RES1    0.0000
     22 H6        12.1201    9.1410    3.6584 H         1 RES1    0.0000
     23 H7        11.5195   10.0466    4.7881 H         1 RES1    0.0000
     24 C10        7.7033    7.5210    1.9051 C.2       1 RES1    0.0000
     25 C11        6.2608    7.4438    1.5336 C.2       1 RES1    0.0000
     26 C12        4.6354    6.2251    0.3127 C.3       1 RES1    0.0000
     27 H8         4.4145    6.8495   -0.3961 H         1 RES1    0.0000
     28 H9         4.0328    6.3781    1.0569 H         1 RES1    0.0000
     29 C13        4.5044    4.8165   -0.1789 C.3       1 RES1    0.0000
     30 H10        5.1143    4.6734   -0.9066 H         1 RES1    0.0000
     31 H11        3.6051    4.6644   -0.4802 H         1 RES1    0.0000
     32 H12        4.7099    4.2078    0.5351 H         1 RES1    0.0000
@<TRIPOS>BOND
     1    1   19 2
     2    2    7 2
     3    3    7 2
     4    4   25 2
     5    5   25 1
     6    6    8 1
     7    7   24 1
     8    8    9 ar
     9    9   10 1
    10   11    9 ar
    11   12   11 1
    12   13   11 ar
    13   14   13 1
    14   15   13 ar
    15   16   15 1
    16   17    8 ar
    17   18   17 1
    18   19    6 1
    19   20    6 1
    20   21   20 1
    21   22   20 1
    22   23   20 1
    23   24   18 2
    24   25   24 1
    25   26    5 1
    26   27   26 1
    27   28   26 1
    28   29   26 1
    29   30   29 1
    30   31   29 1
    31   32   29 1
    32   15   17 ar
    33   18   19 1
@<TRIPOS>SUBSTRUCTURE
     1 RES1 1

@<TRIPOS>CRYSIN
   8.4937    8.6840   10.0187  70.6610  81.9400  64.1850   2 1

