# MOL2 file generated by ConQuest
# Please check atom types

@<TRIPOS>MOLECULE
ZELCEY
    87    89     1
SMALL
NO_CHARGES
****
Generated from CSD

@<TRIPOS>ATOM
      1 O1        13.2194    8.3132    3.6960 O.2       1 RES1    0.0000
      2 O2        10.0870    9.6129    7.3830 O.2       1 RES1    0.0000
      3 O3        10.4318    7.6912    8.4279 O.3       1 RES1    0.0000
      4 O4         8.8530    5.2060    4.5807 O.2       1 RES1    0.0000
      5 O5         6.8508    5.7871    3.7813 O.3       1 RES1    0.0000
      6 O6        13.5660    5.9334    0.5569 O.2       1 RES1    0.0000
      7 O7        12.7917    0.6001    1.4580 O.2       1 RES1    0.0000
      8 O8        13.6831    1.3055   -0.4611 O.3       1 RES1    0.0000
      9 O9        17.1489    0.9952    3.9340 O.2       1 RES1    0.0000
     10 O10       17.9027    2.6316    5.2349 O.3       1 RES1    0.0000
     11 O11       12.9980    2.2422    6.7378 O.2       1 RES1    0.0000
     12 O12       11.0628    3.4073    6.6525 O.3       1 RES1    0.0000
     13 N1        12.3701    6.8482    2.1032 N.am      1 RES1    0.0000
     14 N2        13.5797    6.6565    1.5284 N.2       1 RES1    0.0000
     15 N3        11.4303    4.0264    4.0178 N.3       1 RES1    0.0000
     16 C1        12.2885    7.6971    3.2229 C.2       1 RES1    0.0000
     17 C2        10.8865    7.6912    3.6271 C.2       1 RES1    0.0000
     18 C3        10.1830    6.9492    2.7664 C.2       1 RES1    0.0000
     19 C4        11.0480    6.3330    1.6856 C.3       1 RES1    0.0000
     20 C5        10.9768    4.7816    1.6586 C.3       1 RES1    0.0000
     21 C6        11.7668    4.0469    2.6990 C.2       1 RES1    0.0000
     22 C7        12.8902    3.2594    2.5373 C.2       1 RES1    0.0000
     23 C8        13.2584    2.7428    3.8053 C.2       1 RES1    0.0000
     24 C9        12.3206    3.2316    4.7064 C.2       1 RES1    0.0000
     25 C10       10.4420    8.4508    4.8352 C.3       1 RES1    0.0000
     26 C11       10.7814    7.6941    6.1121 C.3       1 RES1    0.0000
     27 C12       10.3934    8.4596    7.3411 C.2       1 RES1    0.0000
     28 C13       10.0938    8.3381    9.6748 C.3       1 RES1    0.0000
     29 C14        8.6920    6.7662    2.7514 C.3       1 RES1    0.0000
     30 C15        8.1797    5.8383    3.8098 C.2       1 RES1    0.0000
     31 C16        6.2472    4.9850    4.8277 C.3       1 RES1    0.0000
     32 C17       10.6692    6.8965    0.3144 C.3       1 RES1    0.0000
     33 C18       13.5411    2.8935    1.2380 C.3       1 RES1    0.0000
     34 C19       13.2709    1.4841    0.7904 C.2       1 RES1    0.0000
     35 C20       13.5087   -0.0410   -0.9820 C.3       1 RES1    0.0000
     36 C21       14.4684    1.9071    4.0927 C.3       1 RES1    0.0000
     37 C22       15.6437    2.7413    4.6001 C.3       1 RES1    0.0000
     38 C23       16.9484    2.0139    4.5478 C.2       1 RES1    0.0000
     39 C24       19.2255    2.0300    5.1286 C.3       1 RES1    0.0000
     40 C25       12.1896    2.9140    6.1166 C.2       1 RES1    0.0000
     41 C26       10.8829    3.1789    8.0821 C.3       1 RES1    0.0000
     42 C27       11.5091    4.3366    8.8216 C.3       1 RES1    0.0000
     43 C28        9.4228    2.9960    8.3620 C.ar      1 RES1    0.0000
     44 C29        9.0368    2.1573    9.4009 C.ar      1 RES1    0.0000
     45 C30        7.7196    1.9451    9.7152 C.ar      1 RES1    0.0000
     46 C31        6.7360    2.5408    8.9713 C.ar      1 RES1    0.0000
     47 C32        7.0968    3.3663    7.9399 C.ar      1 RES1    0.0000
     48 C33        8.4215    3.5946    7.6300 C.ar      1 RES1    0.0000
     49 H1         9.9154    4.5094    1.7395 H         1 RES1    0.0000
     50 H2        11.3675    4.4362    0.7455 H         1 RES1    0.0000
     51 H3        10.6184    4.4303    4.4011 H         1 RES1    0.0000
     52 H4         9.4901    8.6308    4.8067 H         1 RES1    0.0000
     53 H5        10.9851    9.3319    4.8456 H         1 RES1    0.0000
     54 H6        11.7565    7.5668    6.1705 H         1 RES1    0.0000
     55 H7        10.3806    6.8262    6.1510 H         1 RES1    0.0000
     56 H8         9.9135    7.5331   10.3994 H         1 RES1    0.0000
     57 H9         9.2514    8.7611    9.5775 H         1 RES1    0.0000
     58 H10       10.8314    8.9865    9.8994 H         1 RES1    0.0000
     59 H11        8.4139    6.4193    1.9041 H         1 RES1    0.0000
     60 H12        8.2302    7.5478    2.8143 H         1 RES1    0.0000
     61 H13        6.6252    4.0000    4.7483 H         1 RES1    0.0000
     62 H14        5.1765    5.0450    4.5942 H         1 RES1    0.0000
     63 H15        6.4162    5.4270    5.7513 H         1 RES1    0.0000
     64 H16       11.4038    6.5979   -0.3563 H         1 RES1    0.0000
     65 H17       10.6339    7.8361    0.2799 H         1 RES1    0.0000
     66 H18        9.7444    6.5277    0.0614 H         1 RES1    0.0000
     67 H19       13.3000    3.5697    0.4835 H         1 RES1    0.0000
     68 H20       14.4956    2.9155    1.3173 H         1 RES1    0.0000
     69 H21       12.5785   -0.3015   -0.8952 H         1 RES1    0.0000
     70 H22       13.8302   -0.0044   -1.8966 H         1 RES1    0.0000
     71 H23       14.1211   -0.5928   -0.5479 H         1 RES1    0.0000
     72 H24       14.7612    1.4534    3.3532 H         1 RES1    0.0000
     73 H25       14.2815    1.2938    4.7244 H         1 RES1    0.0000
     74 H26       15.7615    3.5902    4.0792 H         1 RES1    0.0000
     75 H27       15.4882    3.0560    5.5298 H         1 RES1    0.0000
     76 H28       19.5273    2.0651    4.1376 H         1 RES1    0.0000
     77 H29       19.8548    2.4896    5.7648 H         1 RES1    0.0000
     78 H30       19.1626    1.0757    5.4459 H         1 RES1    0.0000
     79 H31       11.4311    2.3066    8.2886 H         1 RES1    0.0000
     80 H32       12.4604    4.3791    8.5686 H         1 RES1    0.0000
     81 H33       11.3850    4.2400    9.8560 H         1 RES1    0.0000
     82 H34       11.0754    5.1958    8.5267 H         1 RES1    0.0000
     83 H35        9.7199    1.6773    9.8679 H         1 RES1    0.0000
     84 H36        7.4671    1.3172   10.4562 H         1 RES1    0.0000
     85 H37        5.7483    2.2759    9.0760 H         1 RES1    0.0000
     86 H38        6.4106    3.7322    7.4414 H         1 RES1    0.0000
     87 H39        8.6104    4.1054    6.9159 H         1 RES1    0.0000
@<TRIPOS>BOND
     1    1   16 2
     2    2   27 2
     3    3   27 1
     4    4   30 2
     5    5   30 1
     6    6   14 2
     7    7   34 2
     8    8   34 1
     9    9   38 2
    10   10   38 1
    11   11   40 2
    12   12   40 1
    13   13   14 1
    14   15   21 1
    15   16   13 1
    16   17   16 1
    17   18   17 2
    18   19   13 1
    19   20   19 1
    20   21   20 1
    21   22   21 2
    22   23   22 1
    23   24   15 1
    24   25   17 1
    25   26   25 1
    26   27   26 1
    27   28    3 1
    28   29   18 1
    29   30   29 1
    30   31    5 1
    31   32   19 1
    32   33   22 1
    33   34   33 1
    34   35    8 1
    35   36   23 1
    36   37   36 1
    37   38   37 1
    38   39   10 1
    39   40   24 1
    40   41   12 1
    41   42   41 1
    42   43   41 1
    43   44   43 ar
    44   45   44 ar
    45   46   45 ar
    46   47   46 ar
    47   48   43 ar
    48   49   20 1
    49   50   20 1
    50   51   15 1
    51   52   25 1
    52   53   25 1
    53   54   26 1
    54   55   26 1
    55   56   28 1
    56   57   28 1
    57   58   28 1
    58   59   29 1
    59   60   29 1
    60   61   31 1
    61   62   31 1
    62   63   31 1
    63   64   32 1
    64   65   32 1
    65   66   32 1
    66   67   33 1
    67   68   33 1
    68   69   35 1
    69   70   35 1
    70   71   35 1
    71   72   36 1
    72   73   36 1
    73   74   37 1
    74   75   37 1
    75   76   39 1
    76   77   39 1
    77   78   39 1
    78   79   41 1
    79   80   42 1
    80   81   42 1
    81   82   42 1
    82   83   44 1
    83   84   45 1
    84   85   46 1
    85   86   47 1
    86   87   48 1
    87   18   19 1
    88   23   24 2
    89   47   48 ar
@<TRIPOS>SUBSTRUCTURE
     1 RES1 1

@<TRIPOS>CRYSIN
  15.1420   14.6360   15.7950  90.0000 108.6050  90.0000 231 1

