# MOL2 file generated by ConQuest
# Please check atom types

@<TRIPOS>MOLECULE
ZELPAK
    39    40     1
SMALL
NO_CHARGES
****
Generated from CSD

@<TRIPOS>ATOM
      1 N1         1.8400    7.5647    1.6978 N.2       1 RES1    0.0000
      2 O1         1.5025    4.9968    1.6900 O.3       1 RES1    0.0000
      3 H1         1.2679    5.7662    1.8530 H         1 RES1    0.0000
      4 C1         2.8457    4.9305    1.6829 C.ar      1 RES1    0.0000
      5 C2        -0.5148   10.3952    1.6842 C.ar      1 RES1    0.0000
      6 C3         3.6567    6.0688    1.6874 C.ar      1 RES1    0.0000
      7 C4        -1.6256   12.8937    1.6868 C.ar      1 RES1    0.0000
      8 O2         2.5260    2.6270    1.6868 O.3       1 RES1    0.0000
      9 C5        -0.2631   12.7807    1.6906 C.ar      1 RES1    0.0000
     10 H2         0.2777   13.5384    1.6842 H         1 RES1    0.0000
     11 C6         3.4226    3.6571    1.6913 C.ar      1 RES1    0.0000
     12 N2        -2.2231   14.2355    1.7107 N.pl3     1 RES1    0.0000
     13 C7         3.1008    7.3987    1.6887 C.2       1 RES1    0.0000
     14 H3         3.6662    8.1368    1.6835 H         1 RES1    0.0000
     15 C8         0.2894   11.5231    1.7036 C.ar      1 RES1    0.0000
     16 H4         1.2140   11.4282    1.7249 H         1 RES1    0.0000
     17 C9        -1.8858   10.5532    1.6958 C.ar      1 RES1    0.0000
     18 H5        -2.4323    9.8018    1.7146 H         1 RES1    0.0000
     19 C10       -2.4568   11.8040    1.6803 C.ar      1 RES1    0.0000
     20 H6        -3.3815   11.9070    1.6654 H         1 RES1    0.0000
     21 O3        -3.4465   14.3116    1.6855 O.2       1 RES1    0.0000
     22 C11        3.0398    1.2900    1.6622 C.3       1 RES1    0.0000
     23 H7         3.6124    1.1358    2.4295 H         1 RES1    0.0000
     24 H8         3.5571    1.1425    0.8553 H         1 RES1    0.0000
     25 C12        5.6051    4.6566    1.6648 C.ar      1 RES1    0.0000
     26 H9         6.5292    4.5632    1.6214 H         1 RES1    0.0000
     27 C13       -0.0028    8.9890    1.7062 C.2       1 RES1    0.0000
     28 N3         1.3430    8.8374    1.7003 N.am      1 RES1    0.0000
     29 H10        1.8671    9.5196    1.6984 H         1 RES1    0.0000
     30 O4        -1.4893   15.2027    1.7036 O.2       1 RES1    0.0000
     31 O5        -0.7590    8.0372    1.7159 O.2       1 RES1    0.0000
     32 C14        4.7934    3.5241    1.6893 C.ar      1 RES1    0.0000
     33 H11        5.1777    2.6781    1.7042 H         1 RES1    0.0000
     34 C15        1.8600    0.3676    1.6990 C.3       1 RES1    0.0000
     35 H12        1.4280    0.3646    0.8411 H         1 RES1    0.0000
     36 H13        1.2395    0.6670    2.3681 H         1 RES1    0.0000
     37 H14        2.1547   -0.5208    1.9113 H         1 RES1    0.0000
     38 C16        5.0511    5.9023    1.7036 C.ar      1 RES1    0.0000
     39 H15        5.6027    6.6499    1.7411 H         1 RES1    0.0000
@<TRIPOS>BOND
     1    1   13 2
     2    2    3 1
     3    4    2 1
     4    5   15 ar
     5    6    4 ar
     6    7    9 ar
     7    8   11 1
     8    9   10 1
     9   11    4 ar
    10   12    7 1
    11   13    6 1
    12   14   13 1
    13   15    9 ar
    14   16   15 1
    15   17    5 ar
    16   18   17 1
    17   19    7 ar
    18   20   19 1
    19   21   12 2
    20   22    8 1
    21   23   22 1
    22   24   22 1
    23   25   26 1
    24   27    5 1
    25   28    1 1
    26   29   28 1
    27   30   12 2
    28   31   27 2
    29   32   11 ar
    30   33   32 1
    31   34   22 1
    32   35   34 1
    33   36   34 1
    34   37   34 1
    35   38    6 ar
    36   39   38 1
    37   17   19 ar
    38   25   32 ar
    39   25   38 ar
    40   27   28 1
@<TRIPOS>SUBSTRUCTURE
     1 RES1 1

@<TRIPOS>CRYSIN
  14.1662   16.8012    6.4701  90.0000  90.0000  90.0000  33 1

