# MOL2 file generated by ConQuest
# Please check atom types

@<TRIPOS>MOLECULE
ZELTEP
    53    57     1
SMALL
NO_CHARGES
****
Generated from CSD

@<TRIPOS>ATOM
      1 O1         5.2812    5.9090    7.0234 O.3       1 RES1    0.0000
      2 C1         6.2703    6.9433    6.8765 C.3       1 RES1    0.0000
      3 C2         5.6298    8.1132    6.1830 C.ar      1 RES1    0.0000
      4 C3         5.5455    8.1907    4.8196 C.ar      1 RES1    0.0000
      5 C4         4.8386    9.2018    4.2067 C.ar      1 RES1    0.0000
      6 C5         4.2062   10.1315    4.9695 C.ar      1 RES1    0.0000
      7 C6         4.2905   10.0825    6.3268 C.ar      1 RES1    0.0000
      8 C7         5.0056    9.0675    6.9438 C.ar      1 RES1    0.0000
      9 N1         7.3519    6.2977    6.1402 N.am      1 RES1    0.0000
     10 C8         8.5340    6.9653    5.9954 C.2       1 RES1    0.0000
     11 O2         8.6669    8.0564    6.5155 O.2       1 RES1    0.0000
     12 C9         9.6155    6.3454    5.1867 C.ar      1 RES1    0.0000
     13 C10        9.5393    6.3261    3.8028 C.ar      1 RES1    0.0000
     14 C11       10.5916    5.8560    3.0492 C.ar      1 RES1    0.0000
     15 C12       11.7072    5.3628    3.6743 C.ar      1 RES1    0.0000
     16 C13       11.7948    5.3602    5.0429 C.ar      1 RES1    0.0000
     17 C14       10.7587    5.8780    5.7996 C.ar      1 RES1    0.0000
     18 C15        7.0438    4.9173    5.7965 C.3       1 RES1    0.0000
     19 C16        5.6655    4.7675    6.4360 C.2       1 RES1    0.0000
     20 O3         4.9812    3.7938    6.4186 O.2       1 RES1    0.0000
     21 C17        7.9843    3.8016    6.2147 C.3       1 RES1    0.0000
     22 C18        8.3410    3.1069    4.9246 C.3       1 RES1    0.0000
     23 C19        8.5631    1.6103    5.0256 C.ar      1 RES1    0.0000
     24 C20        7.5611    0.7774    5.4651 C.ar      1 RES1    0.0000
     25 C21        7.7913   -0.5811    5.6191 C.ar      1 RES1    0.0000
     26 C22        9.0058   -1.1105    5.3183 C.ar      1 RES1    0.0000
     27 C23        9.9917   -0.3112    4.8390 C.ar      1 RES1    0.0000
     28 C24        9.7760    1.0576    4.6880 C.ar      1 RES1    0.0000
     29 N2         7.1395    3.3729    4.1078 N.3       1 RES1    0.0000
     30 C25        7.4151    3.3535    2.6698 C.3       1 RES1    0.0000
     31 O4         6.8962    4.8114    4.3953 O.3       1 RES1    0.0000
     32 H1         6.5671    7.2055    7.8525 H         1 RES1    0.0000
     33 H2         5.9509    7.4766    4.2934 H         1 RES1    0.0000
     34 H3         4.7510    9.2457    3.1308 H         1 RES1    0.0000
     35 H4         3.6484   10.8598    4.6095 H         1 RES1    0.0000
     36 H5         3.9240   10.6274    6.9856 H         1 RES1    0.0000
     37 H6         5.0429    8.9100    7.8525 H         1 RES1    0.0000
     38 H7         8.8210    6.6373    3.4163 H         1 RES1    0.0000
     39 H8        10.5073    5.8109    2.0090 H         1 RES1    0.0000
     40 H9        12.4369    4.9715    3.1716 H         1 RES1    0.0000
     41 H10       12.5504    4.9586    5.5069 H         1 RES1    0.0000
     42 H11       10.7668    5.9012    6.7817 H         1 RES1    0.0000
     43 H12        8.7075    4.1322    6.6389 H         1 RES1    0.0000
     44 H13        7.5075    3.1379    6.7613 H         1 RES1    0.0000
     45 H14        9.1128    3.5252    4.5279 H         1 RES1    0.0000
     46 H15        6.7617    1.2009    5.8333 H         1 RES1    0.0000
     47 H16        7.0697   -1.0976    5.9556 H         1 RES1    0.0000
     48 H17        9.1939   -2.1436    5.4151 H         1 RES1    0.0000
     49 H18       10.8641   -0.6327    4.6707 H         1 RES1    0.0000
     50 H19       10.3614    1.5883    4.4259 H         1 RES1    0.0000
     51 H20        7.6697    2.4147    2.5495 H         1 RES1    0.0000
     52 H21        6.5671    3.5511    2.2130 H         1 RES1    0.0000
     53 H22        8.2048    3.9772    2.4679 H         1 RES1    0.0000
@<TRIPOS>BOND
     1    1    2 1
     2    2    3 1
     3    3    4 ar
     4    4    5 ar
     5    5    6 ar
     6    6    7 ar
     7    7    8 ar
     8    8    3 ar
     9    9    2 1
    10   10    9 1
    11   11   10 2
    12   12   10 1
    13   13   12 ar
    14   14   13 ar
    15   15   14 ar
    16   16   15 ar
    17   17   12 ar
    18   18    9 1
    19   19    1 1
    20   20   19 2
    21   21   18 1
    22   22   21 1
    23   23   22 1
    24   24   23 ar
    25   25   24 ar
    26   26   25 ar
    27   27   26 ar
    28   28   23 ar
    29   29   22 1
    30   30   29 1
    31   31   18 1
    32   32    2 1
    33   33    4 1
    34   34    5 1
    35   35    6 1
    36   36    7 1
    37   37    8 1
    38   38   13 1
    39   39   14 1
    40   40   15 1
    41   41   16 1
    42   42   17 1
    43   43   21 1
    44   44   21 1
    45   45   22 1
    46   46   24 1
    47   47   25 1
    48   48   26 1
    49   49   27 1
    50   50   28 1
    51   51   30 1
    52   52   30 1
    53   53   30 1
    54   16   17 ar
    55   18   19 1
    56   27   28 ar
    57   29   31 1
@<TRIPOS>SUBSTRUCTURE
     1 RES1 1

@<TRIPOS>CRYSIN
  16.2150   12.9130   10.1980  90.0000  90.0000  90.0000  19 1

