# MOL2 file generated by ConQuest
# Please check atom types

@<TRIPOS>MOLECULE
ZELVER
    48    52     1
SMALL
NO_CHARGES
****
Generated from CSD

@<TRIPOS>ATOM
      1 O1         4.9119    0.0000    7.1964 O.3       1 RES1    0.0000
      2 C1         4.9078    1.1799    6.3651 C.3       1 RES1    0.0000
      3 C2         6.1209    2.0169    6.6488 C.ar      1 RES1    0.0000
      4 C3         6.3737    2.4622    7.9258 C.ar      1 RES1    0.0000
      5 C4         7.4931    3.2296    8.1867 C.ar      1 RES1    0.0000
      6 C5         8.3414    3.5493    7.1657 C.ar      1 RES1    0.0000
      7 C6         8.1091    3.1017    5.8887 C.ar      1 RES1    0.0000
      8 C7         6.9753    2.3358    5.6476 C.ar      1 RES1    0.0000
      9 N1         3.6333    1.8442    6.7289 N.am      1 RES1    0.0000
     10 C8         3.1858    2.8219    5.8907 C.2       1 RES1    0.0000
     11 O2         3.8451    3.1312    4.9320 O.2       1 RES1    0.0000
     12 C9         1.8912    3.4886    6.2050 C.ar      1 RES1    0.0000
     13 C10        1.8401    4.5486    7.0659 C.ar      1 RES1    0.0000
     14 C11        0.6662    5.2281    7.3021 C.ar      1 RES1    0.0000
     15 C12       -0.4698    4.8364    6.6607 C.ar      1 RES1    0.0000
     16 C13       -0.4491    3.7892    5.7978 C.ar      1 RES1    0.0000
     17 C14        0.7349    3.1257    5.5507 C.ar      1 RES1    0.0000
     18 C15        2.9146    1.1240    7.7548 C.3       1 RES1    0.0000
     19 C16        3.8502   -0.0496    8.0118 C.2       1 RES1    0.0000
     20 O3         3.6754   -0.9241    8.8045 O.2       1 RES1    0.0000
     21 C17        2.5242    1.8546    9.0180 C.3       1 RES1    0.0000
     22 C18        1.0283    1.8002    8.9577 C.2       1 RES1    0.0000
     23 C19        0.1440    2.4813    9.9016 C.ar      1 RES1    0.0000
     24 C20        0.6342    2.9898   11.0945 C.ar      1 RES1    0.0000
     25 C21       -0.1970    3.5973   11.9999 C.ar      1 RES1    0.0000
     26 C22       -1.5408    3.6964   11.7340 C.ar      1 RES1    0.0000
     27 C23       -2.0446    3.2296   10.5569 C.ar      1 RES1    0.0000
     28 C24       -1.2242    2.6116    9.6357 C.ar      1 RES1    0.0000
     29 N2         0.5841    1.0776    8.0098 N.2       1 RES1    0.0000
     30 O4         1.6776    0.5668    7.2428 O.3       1 RES1    0.0000
     31 H1         4.9257    0.8953    5.3965 H         1 RES1    0.0000
     32 H2         5.7606    2.2223    8.5989 H         1 RES1    0.0000
     33 H3         7.6669    3.5893    9.2117 H         1 RES1    0.0000
     34 H4         9.1615    3.9810    7.2745 H         1 RES1    0.0000
     35 H5         8.6711    3.3335    5.1494 H         1 RES1    0.0000
     36 H6         6.7800    2.1104    4.7640 H         1 RES1    0.0000
     37 H7         2.5722    4.8204    7.5117 H         1 RES1    0.0000
     38 H8         0.6430    5.9156    8.0157 H         1 RES1    0.0000
     39 H9        -1.2934    5.3000    6.8890 H         1 RES1    0.0000
     40 H10       -1.2023    3.5254    5.2779 H         1 RES1    0.0000
     41 H11        0.7568    2.3422    4.9320 H         1 RES1    0.0000
     42 H12        2.8699    2.6700    8.9843 H         1 RES1    0.0000
     43 H13        2.9323    1.4709    9.8245 H         1 RES1    0.0000
     44 H14        1.6404    2.8299   11.2971 H         1 RES1    0.0000
     45 H15        0.1477    3.8771   12.8094 H         1 RES1    0.0000
     46 H16       -2.0448    4.2048   12.3349 H         1 RES1    0.0000
     47 H17       -2.9091    3.3975   10.2791 H         1 RES1    0.0000
     48 H18       -1.5125    2.3023    8.7373 H         1 RES1    0.0000
@<TRIPOS>BOND
     1    1    2 1
     2    2    3 1
     3    3    4 ar
     4    4    5 ar
     5    5    6 ar
     6    6    7 ar
     7    7    8 ar
     8    8    3 ar
     9    9    2 1
    10   10    9 1
    11   11   10 2
    12   12   10 1
    13   13   12 ar
    14   14   13 ar
    15   15   14 ar
    16   16   15 ar
    17   17   12 ar
    18   18    9 1
    19   19    1 1
    20   20   19 2
    21   21   18 1
    22   22   21 1
    23   23   22 1
    24   24   23 ar
    25   25   24 ar
    26   26   25 ar
    27   27   26 ar
    28   28   23 ar
    29   29   22 2
    30   30   18 1
    31   31    2 1
    32   32    4 1
    33   33    5 1
    34   34    6 1
    35   35    7 1
    36   36    8 1
    37   37   13 1
    38   38   14 1
    39   39   15 1
    40   40   16 1
    41   41   17 1
    42   42   21 1
    43   43   21 1
    44   44   24 1
    45   45   25 1
    46   46   26 1
    47   47   27 1
    48   48   28 1
    49   16   17 ar
    50   18   19 1
    51   27   28 ar
    52   29   30 1
@<TRIPOS>SUBSTRUCTURE
     1 RES1 1

@<TRIPOS>CRYSIN
  12.8200    7.9940   10.1110  90.0000 102.1700  90.0000   4 1

