# MOL2 file generated by ConQuest
# Please check atom types

@<TRIPOS>MOLECULE
ZERJIR
    21    21     1
SMALL
NO_CHARGES
****
Generated from CSD

@<TRIPOS>ATOM
      1 O1         5.5842    3.4403    7.8730 O.2       1 RES1    0.0000
      2 N1         5.6670    1.5459    6.6043 N.2       1 RES1    0.0000
      3 O2         7.1457    1.9796    8.1357 O.2       1 RES1    0.0000
      4 N2         4.2729    1.0200    4.9395 N.pl3     1 RES1    0.0000
      5 H1         3.6243    1.1728    4.3966 H         1 RES1    0.0000
      6 H2         4.7039    0.2771    4.8965 H         1 RES1    0.0000
      7 C1         4.6080    1.9266    5.8409 C.2       1 RES1    0.0000
      8 N3         6.1293    2.3620    7.5559 N.pl3     1 RES1    0.0000
      9 N4         3.9542    3.0739    5.9196 N.pl3     1 RES1    0.0000
     10 H3         4.1991    3.6278    6.5310 H         1 RES1    0.0000
     11 C2         2.8729    3.4687    5.0711 C.ar      1 RES1    0.0000
     12 C3         1.6788    2.7753    5.0799 C.ar      1 RES1    0.0000
     13 H4         1.5691    2.0378    5.6347 H         1 RES1    0.0000
     14 C4         0.6492    3.1871    4.2571 C.ar      1 RES1    0.0000
     15 H5        -0.1524    2.7168    4.2501 H         1 RES1    0.0000
     16 C5         0.8005    4.2792    3.4538 C.ar      1 RES1    0.0000
     17 H6         0.1067    4.5450    2.8947 H         1 RES1    0.0000
     18 C6         1.9671    4.9792    3.4711 C.ar      1 RES1    0.0000
     19 H7         2.0584    5.7321    2.9342 H         1 RES1    0.0000
     20 C7         3.0246    4.5808    4.2842 C.ar      1 RES1    0.0000
     21 H8         3.8207    5.0614    4.2931 H         1 RES1    0.0000
@<TRIPOS>BOND
     1    1    8 2
     2    2    7 2
     3    3    8 2
     4    4    5 1
     5    6    4 1
     6    7    4 1
     7    8    2 1
     8    9    7 1
     9   10    9 1
    10   11    9 1
    11   12   11 ar
    12   13   12 1
    13   14   12 ar
    14   15   14 1
    15   16   14 ar
    16   17   16 1
    17   18   16 ar
    18   19   18 1
    19   20   11 ar
    20   21   20 1
    21   18   20 ar
@<TRIPOS>SUBSTRUCTURE
     1 RES1 1

@<TRIPOS>CRYSIN
   7.1079   10.2250   11.9450  90.0000 103.2900  90.0000 231 1

