# MOL2 file generated by ConQuest
# Please check atom types

@<TRIPOS>MOLECULE
ZESGAF
    58    61     1
SMALL
NO_CHARGES
****
Generated from CSD

@<TRIPOS>ATOM
      1 C1        -0.8797   -7.0315   -6.0954 C.3       1 RES1    0.0000
      2 C2         0.3023   -6.2068   -6.5875 C.3       1 RES1    0.0000
      3 C3         0.9294   -6.6107   -7.9505 C.3       1 RES1    0.0000
      4 C4         0.7827   -5.1671   -8.4646 C.3       1 RES1    0.0000
      5 C5        -0.0721   -4.7956   -7.2152 C.3       1 RES1    0.0000
      6 C6        -1.5150   -4.3748   -7.4982 C.3       1 RES1    0.0000
      7 C7        -2.3847   -4.2168   -6.2408 C.3       1 RES1    0.0000
      8 C8        -2.9181   -5.4843   -5.5633 C.3       1 RES1    0.0000
      9 C9        -1.8223   -6.3829   -5.0532 C.3       1 RES1    0.0000
     10 C10       -2.0890   -7.8109   -4.4694 C.3       1 RES1    0.0000
     11 C11       -0.7521   -8.2524   -5.1389 C.3       1 RES1    0.0000
     12 C12        1.3874   -6.0346   -5.5295 C.3       1 RES1    0.0000
     13 C13       -1.4918   -3.0607   -8.2753 C.3       1 RES1    0.0000
     14 C14       -3.2900   -8.4881   -5.1050 C.3       1 RES1    0.0000
     15 C15       -2.1569   -7.9028   -2.9471 C.3       1 RES1    0.0000
     16 O1        -2.0343   -5.4468   -8.3988 O.3       1 RES1    0.0000
     17 C16       -3.2710   -5.3911   -8.8850 C.2       1 RES1    0.0000
     18 O2        -4.1034   -4.5560   -8.6260 O.2       1 RES1    0.0000
     19 C17       -3.5286   -6.5201   -9.8494 C.ar      1 RES1    0.0000
     20 C18       -4.8058   -6.6198  -10.3934 C.ar      1 RES1    0.0000
     21 C19       -5.0559   -7.6102  -11.3239 C.ar      1 RES1    0.0000
     22 C20       -4.0968   -8.4958  -11.7543 C.ar      1 RES1    0.0000
     23 C21       -2.8402   -8.3780  -11.1785 C.ar      1 RES1    0.0000
     24 C22       -2.5379   -7.4186  -10.2320 C.ar      1 RES1    0.0000
     25 N1        -6.4326   -7.7203  -11.8679 N.pl3     1 RES1    0.0000
     26 O3        -6.6529   -8.6434  -12.6490 O.2       1 RES1    0.0000
     27 O4        -7.2584   -6.9046  -11.5113 O.2       1 RES1    0.0000
     28 N2        -1.7883   -9.3076  -11.6189 N.pl3     1 RES1    0.0000
     29 O5        -1.9117   -9.8371  -12.7208 O.2       1 RES1    0.0000
     30 O6        -0.8540   -9.5135  -10.8457 O.2       1 RES1    0.0000
     31 H1        -1.4031   -7.2956   -6.8565 H         1 RES1    0.0000
     32 H2         1.8405   -6.9059   -7.8827 H         1 RES1    0.0000
     33 H3         0.3992   -7.2451   -8.4387 H         1 RES1    0.0000
     34 H4         0.2998   -5.0959   -9.2895 H         1 RES1    0.0000
     35 H5         1.6160   -4.6920   -8.5124 H         1 RES1    0.0000
     36 H6         0.3703   -4.1003   -6.7210 H         1 RES1    0.0000
     37 H7        -3.1376   -3.6718   -6.4799 H         1 RES1    0.0000
     38 H8        -1.8761   -3.7274   -5.5892 H         1 RES1    0.0000
     39 H9        -3.4855   -5.2345   -4.8321 H         1 RES1    0.0000
     40 H10       -3.4524   -5.9737   -6.1930 H         1 RES1    0.0000
     41 H11       -1.2905   -5.8896   -4.4256 H         1 RES1    0.0000
     42 H12       -0.8010   -9.1030   -5.5833 H         1 RES1    0.0000
     43 H13        0.0091   -8.2110   -4.5551 H         1 RES1    0.0000
     44 H14        1.6061   -6.8904   -5.1549 H         1 RES1    0.0000
     45 H15        1.0669   -5.4533   -4.8380 H         1 RES1    0.0000
     46 H16        2.1701   -5.6527   -5.9320 H         1 RES1    0.0000
     47 H17       -0.9467   -3.1617   -9.0584 H         1 RES1    0.0000
     48 H18       -1.1273   -2.3667   -7.7193 H         1 RES1    0.0000
     49 H19       -2.3855   -2.8263   -8.5343 H         1 RES1    0.0000
     50 H20       -3.4101   -9.3568   -4.7165 H         1 RES1    0.0000
     51 H21       -3.1451   -8.5774   -6.0495 H         1 RES1    0.0000
     52 H22       -4.0736   -7.9559   -4.9496 H         1 RES1    0.0000
     53 H23       -2.3226   -8.8117   -2.6880 H         1 RES1    0.0000
     54 H24       -2.8692   -7.3435   -2.6282 H         1 RES1    0.0000
     55 H25       -1.3253   -7.6090   -2.5705 H         1 RES1    0.0000
     56 H26       -5.5007   -6.0152  -10.1264 H         1 RES1    0.0000
     57 H27       -4.2889   -9.1652  -12.4139 H         1 RES1    0.0000
     58 H28       -1.6624   -7.3746   -9.8415 H         1 RES1    0.0000
@<TRIPOS>BOND
     1    1    2 1
     2    2    3 1
     3    3    4 1
     4    4    5 1
     5    5    2 1
     6    6    5 1
     7    7    6 1
     8    8    7 1
     9    9    1 1
    10   10    9 1
    11   11    1 1
    12   12    2 1
    13   13    6 1
    14   14   10 1
    15   15   10 1
    16   16    6 1
    17   17   16 1
    18   18   17 2
    19   19   17 1
    20   20   19 ar
    21   21   20 ar
    22   22   21 ar
    23   23   22 ar
    24   24   19 ar
    25   25   21 1
    26   26   25 2
    27   27   25 2
    28   28   23 1
    29   29   28 2
    30   30   28 2
    31   31    1 1
    32   32    3 1
    33   33    3 1
    34   34    4 1
    35   35    4 1
    36   36    5 1
    37   37    7 1
    38   38    7 1
    39   39    8 1
    40   40    8 1
    41   41    9 1
    42   42   11 1
    43   43   11 1
    44   44   12 1
    45   45   12 1
    46   46   12 1
    47   47   13 1
    48   48   13 1
    49   49   13 1
    50   50   14 1
    51   51   14 1
    52   52   14 1
    53   53   15 1
    54   54   15 1
    55   55   15 1
    56   56   20 1
    57   57   22 1
    58   58   24 1
    59    8    9 1
    60   10   11 1
    61   23   24 ar
@<TRIPOS>SUBSTRUCTURE
     1 RES1 1

@<TRIPOS>CRYSIN
   8.2830   12.9470   19.9260  90.0000  90.0000  90.0000  19 1

