# MOL2 file generated by ConQuest
# Please check atom types

@<TRIPOS>MOLECULE
ZESNUG
    37    40     1
SMALL
NO_CHARGES
****
Generated from CSD

@<TRIPOS>ATOM
      1 O1         9.5385   -2.8701   14.1827 O.2       1 RES1    0.0000
      2 O2         9.5257   -3.2013   16.3379 O.2       1 RES1    0.0000
      3 O3        11.2562    0.1325   14.1509 O.2       1 RES1    0.0000
      4 O4        12.0012   -1.2492   15.6742 O.2       1 RES1    0.0000
      5 O5         8.4409   -0.9407   17.5527 O.3       1 RES1    0.0000
      6 O6         9.7917    0.7464   17.0604 O.3       1 RES1    0.0000
      7 O7         7.3337    1.7784   13.2178 O.2       1 RES1    0.0000
      8 O8         6.7970    2.6794   15.1281 O.2       1 RES1    0.0000
      9 N1         9.5705   -2.4843   15.3510 N.pl3     1 RES1    0.0000
     10 N2        11.1152   -0.6640   15.0644 N.pl3     1 RES1    0.0000
     11 N3         9.7179   -0.6779   16.9943 N.3       1 RES1    0.0000
     12 N4         7.4859    1.9477   14.4276 N.pl3     1 RES1    0.0000
     13 C1         8.6396   -0.2657   14.6432 C.3       1 RES1    0.0000
     14 C2         8.6252    1.2057   15.0816 C.3       1 RES1    0.0000
     15 C3         8.4954    1.2035   16.6098 C.3       1 RES1    0.0000
     16 C4         7.5164    0.1296   17.1290 C.3       1 RES1    0.0000
     17 C5         6.6207   -0.4792   16.0808 C.ar      1 RES1    0.0000
     18 C6         5.2812   -0.8082   16.3061 C.ar      1 RES1    0.0000
     19 C7         4.6226   -1.4891   15.2922 C.ar      1 RES1    0.0000
     20 C8         5.2123   -1.8535   14.0921 C.ar      1 RES1    0.0000
     21 C9         6.5470   -1.4854   13.8864 C.ar      1 RES1    0.0000
     22 C10        7.2280   -0.8119   14.8636 C.ar      1 RES1    0.0000
     23 C11        9.6651   -0.9768   15.5224 C.3       1 RES1    0.0000
     24 C12        4.5682   -0.4770   17.5992 C.3       1 RES1    0.0000
     25 C13        4.4608   -2.5867   13.0047 C.3       1 RES1    0.0000
     26 H1         8.8960   -0.3401   13.6782 H         1 RES1    0.0000
     27 H2         9.4904    1.6356   14.8220 H         1 RES1    0.0000
     28 H3         8.2759    2.1119   16.9649 H         1 RES1    0.0000
     29 H4         6.9828    0.4726   17.9005 H         1 RES1    0.0000
     30 H5         3.7125   -1.7203   15.4318 H         1 RES1    0.0000
     31 H6         6.9796   -1.7026   13.0684 H         1 RES1    0.0000
     32 H7         4.7941    0.4358   17.8735 H         1 RES1    0.0000
     33 H8         4.8486   -1.1064   18.2972 H         1 RES1    0.0000
     34 H9         3.5988   -0.5477   17.4670 H         1 RES1    0.0000
     35 H10        4.8422   -3.4825   12.8921 H         1 RES1    0.0000
     36 H11        4.5345   -2.0905   12.1647 H         1 RES1    0.0000
     37 H12        3.5154   -2.6632   13.2570 H         1 RES1    0.0000
@<TRIPOS>BOND
     1    1    9 2
     2    2    9 2
     3    3   10 2
     4    4   10 2
     5    5   11 1
     6    6   11 1
     7    7   12 2
     8    8   12 2
     9    9   23 1
    10   10   23 1
    11   11   23 1
    12   12   14 1
    13   13   14 1
    14   14   15 1
    15   15    6 1
    16   16    5 1
    17   17   16 1
    18   18   17 ar
    19   19   18 ar
    20   20   19 ar
    21   21   20 ar
    22   22   13 1
    23   23   13 1
    24   24   18 1
    25   25   20 1
    26   26   13 1
    27   27   14 1
    28   28   15 1
    29   29   16 1
    30   30   19 1
    31   31   21 1
    32   32   24 1
    33   33   24 1
    34   34   24 1
    35   35   25 1
    36   36   25 1
    37   37   25 1
    38   15   16 1
    39   17   22 ar
    40   21   22 ar
@<TRIPOS>SUBSTRUCTURE
     1 RES1 1

@<TRIPOS>CRYSIN
  16.0230    7.3610   24.4910  90.0000  90.0000  90.0000  61 1

