# MOL2 file generated by ConQuest
# Please check atom types

@<TRIPOS>MOLECULE
ZESNEQ
    37    38     1
SMALL
NO_CHARGES
****
Generated from CSD

@<TRIPOS>ATOM
      1 O1        -1.6147    2.0633    9.8880 O.2       1 RES1    0.0000
      2 O2        -0.6534    3.9518   10.2711 O.2       1 RES1    0.0000
      3 O3         2.7867    0.8895    7.3712 O.2       1 RES1    0.0000
      4 O4         2.3043    0.8597    5.2528 O.2       1 RES1    0.0000
      5 O5         4.0512    2.5850    4.0047 O.2       1 RES1    0.0000
      6 O6         2.4328    4.0097    4.2871 O.2       1 RES1    0.0000
      7 O7         5.2409    1.9861    7.0683 O.2       1 RES1    0.0000
      8 O8         5.1769    3.9952    6.2442 O.2       1 RES1    0.0000
      9 N1        -0.6837    2.8353    9.7848 N.pl3     1 RES1    0.0000
     10 N2         2.7459    1.3773    6.2630 N.pl3     1 RES1    0.0000
     11 N3         3.2238    3.1801    4.6787 N.pl3     1 RES1    0.0000
     12 N4         4.6898    2.9169    6.5343 N.pl3     1 RES1    0.0000
     13 C1         0.5056    2.3798    8.9180 C.3       1 RES1    0.0000
     14 C2         0.1009    2.7647    7.5325 C.2       1 RES1    0.0000
     15 C3         0.8762    3.4146    6.6930 C.2       1 RES1    0.0000
     16 C4         2.3037    3.7490    7.0112 C.3       1 RES1    0.0000
     17 C5         2.6218    3.6718    8.5008 C.ar      1 RES1    0.0000
     18 C6         3.7656    4.2986    8.9623 C.ar      1 RES1    0.0000
     19 C7         4.1558    4.2258   10.2916 C.ar      1 RES1    0.0000
     20 C8         3.3400    3.5145   11.1549 C.ar      1 RES1    0.0000
     21 C9         2.1705    2.8923   10.7454 C.ar      1 RES1    0.0000
     22 C10        1.7913    2.9922    9.3957 C.ar      1 RES1    0.0000
     23 C11        3.2131    2.8205    6.1691 C.3       1 RES1    0.0000
     24 C12        5.4376    4.8503   10.7480 C.3       1 RES1    0.0000
     25 C13        1.3647    2.1275   11.7649 C.3       1 RES1    0.0000
     26 H1         0.5813    1.3838    8.9692 H         1 RES1    0.0000
     27 H2        -0.7707    2.5256    7.2398 H         1 RES1    0.0000
     28 H3         0.5209    3.6815    5.8535 H         1 RES1    0.0000
     29 H4         2.4696    4.6887    6.7134 H         1 RES1    0.0000
     30 H5         4.2988    4.7934    8.3515 H         1 RES1    0.0000
     31 H6         3.5926    3.4509   12.0687 H         1 RES1    0.0000
     32 H7         6.1139    4.1521   10.8760 H         1 RES1    0.0000
     33 H8         5.2887    5.3202   11.5943 H         1 RES1    0.0000
     34 H9         5.7501    5.4865   10.0714 H         1 RES1    0.0000
     35 H10        0.6868    2.7182   12.1548 H         1 RES1    0.0000
     36 H11        1.9588    1.8005   12.4731 H         1 RES1    0.0000
     37 H12        0.9249    1.3668   11.3307 H         1 RES1    0.0000
@<TRIPOS>BOND
     1    1    9 2
     2    2    9 2
     3    3   10 2
     4    4   10 2
     5    5   11 2
     6    6   11 2
     7    7   12 2
     8    8   12 2
     9    9   13 1
    10   10   23 1
    11   11   23 1
    12   12   23 1
    13   13   14 1
    14   14   15 2
    15   15   16 1
    16   16   17 1
    17   17   18 ar
    18   18   19 ar
    19   19   20 ar
    20   20   21 ar
    21   21   22 ar
    22   22   13 1
    23   23   16 1
    24   24   19 1
    25   25   21 1
    26   26   13 1
    27   27   14 1
    28   28   15 1
    29   29   16 1
    30   30   18 1
    31   31   20 1
    32   32   24 1
    33   33   24 1
    34   34   24 1
    35   35   25 1
    36   36   25 1
    37   37   25 1
    38   17   22 ar
@<TRIPOS>SUBSTRUCTURE
     1 RES1 1

@<TRIPOS>CRYSIN
   9.4230    9.8300   10.0390 101.6100 112.0100 112.2300   2 1

