# MOL2 file generated by ConQuest
# Please check atom types

@<TRIPOS>MOLECULE
ZESPAO
    43    44     1
SMALL
NO_CHARGES
****
Generated from CSD

@<TRIPOS>ATOM
      1 O1        10.4961   -2.6646    8.7885 O.2       1 RES1    0.0000
      2 O2         9.7414   -3.5713   10.5959 O.2       1 RES1    0.0000
      3 O3         5.4076    1.1910    8.3687 O.2       1 RES1    0.0000
      4 O4         6.7678    1.2428   10.0536 O.2       1 RES1    0.0000
      5 O5         6.9583    1.3382    5.7716 O.2       1 RES1    0.0000
      6 O6         6.3588    3.2688    6.5693 O.2       1 RES1    0.0000
      7 O7         8.8600    3.8293    7.7470 O.2       1 RES1    0.0000
      8 O8         7.4223    3.7957    9.3706 O.2       1 RES1    0.0000
      9 N1         9.7114   -2.7182    9.7234 N.pl3     1 RES1    0.0000
     10 N2         6.4729    1.4200    8.8691 N.pl3     1 RES1    0.0000
     11 N3         6.9305    2.1840    6.6339 N.pl3     1 RES1    0.0000
     12 N4         8.0128    3.3133    8.4402 N.pl3     1 RES1    0.0000
     13 C1         8.6091   -1.6044    9.7972 C.3       1 RES1    0.0000
     14 C2         8.0622   -1.5381    8.4062 C.2       1 RES1    0.0000
     15 C3         8.1049   -0.4915    7.6483 C.2       1 RES1    0.0000
     16 C4         8.7705    0.8313    7.9875 C.3       1 RES1    0.0000
     17 C5         9.4493    0.7659    9.3774 C.ar      1 RES1    0.0000
     18 C6        10.2449    1.8279    9.8074 C.ar      1 RES1    0.0000
     19 C7        10.9044    1.8215   11.0214 C.ar      1 RES1    0.0000
     20 C8        10.7519    0.7068   11.8621 C.ar      1 RES1    0.0000
     21 C9        10.0072   -0.3470   11.4185 C.ar      1 RES1    0.0000
     22 C10        9.3690   -0.3425   10.1829 C.ar      1 RES1    0.0000
     23 C11        7.5616   -2.0187   10.8013 C.3       1 RES1    0.0000
     24 C12        9.8154    1.1384    6.9108 C.3       1 RES1    0.0000
     25 C13       11.7434    2.9944   11.4162 C.3       1 RES1    0.0000
     26 C14       11.4183    0.6568   13.2157 C.3       1 RES1    0.0000
     27 C15        7.6192    1.8933    7.9932 C.3       1 RES1    0.0000
     28 H1         7.6542   -2.3212    8.0544 H         1 RES1    0.0000
     29 H2         7.6820   -0.5560    6.7996 H         1 RES1    0.0000
     30 H3        10.3365    2.5865    9.2435 H         1 RES1    0.0000
     31 H4         9.9218   -1.1129   11.9733 H         1 RES1    0.0000
     32 H5         7.9741   -2.1014   11.6874 H         1 RES1    0.0000
     33 H6         7.1803   -2.8818   10.5369 H         1 RES1    0.0000
     34 H7         6.8535   -1.3437   10.8319 H         1 RES1    0.0000
     35 H8        10.2441    1.9978    7.1071 H         1 RES1    0.0000
     36 H9         9.3788    1.1829    6.0349 H         1 RES1    0.0000
     37 H10       10.4942    0.4297    6.9017 H         1 RES1    0.0000
     38 H11       12.6733    2.7073   11.5308 H         1 RES1    0.0000
     39 H12       11.4099    3.3651   12.2604 H         1 RES1    0.0000
     40 H13       11.6966    3.6803   10.7173 H         1 RES1    0.0000
     41 H14       11.1496    1.4391   13.7410 H         1 RES1    0.0000
     42 H15       12.3924    0.6605   13.1011 H         1 RES1    0.0000
     43 H16       11.1488   -0.1599   13.6831 H         1 RES1    0.0000
@<TRIPOS>BOND
     1    1    9 2
     2    2    9 2
     3    3   10 2
     4    4   10 2
     5    5   11 2
     6    6   11 2
     7    7   12 2
     8    8   12 2
     9    9   13 1
    10   10   27 1
    11   11   27 1
    12   12   27 1
    13   13   14 1
    14   14   15 2
    15   15   16 1
    16   16   17 1
    17   17   18 ar
    18   18   19 ar
    19   19   20 ar
    20   20   21 ar
    21   21   22 ar
    22   22   13 1
    23   23   13 1
    24   24   16 1
    25   25   19 1
    26   26   20 1
    27   27   16 1
    28   28   14 1
    29   29   15 1
    30   30   18 1
    31   31   21 1
    32   32   23 1
    33   33   23 1
    34   34   23 1
    35   35   24 1
    36   36   24 1
    37   37   24 1
    38   38   25 1
    39   39   25 1
    40   40   25 1
    41   41   26 1
    42   42   26 1
    43   43   26 1
    44   17   22 ar
@<TRIPOS>SUBSTRUCTURE
     1 RES1 1

@<TRIPOS>CRYSIN
  16.0540    9.0850   11.9090  90.0000 107.6900  90.0000  14 1

