# MOL2 file generated by ConQuest
# Please check atom types

@<TRIPOS>MOLECULE
ZETKOB
    42    44     1
SMALL
NO_CHARGES
****
Generated from CSD

@<TRIPOS>ATOM
      1 O1         4.4411    0.2825    8.8515 O.3       1 RES1    0.0000
      2 O2         8.4584    5.4545    7.9877 O.3       1 RES1    0.0000
      3 O3         9.3946    3.4270    8.0880 O.2       1 RES1    0.0000
      4 N1         5.0022    0.2663    7.5368 N.2       1 RES1    0.0000
      5 C1         4.5293    1.6401    9.3866 C.3       1 RES1    0.0000
      6 H1         3.6560    1.9276    9.7785 H         1 RES1    0.0000
      7 C2         5.6536    1.7719   10.4077 C.3       1 RES1    0.0000
      8 H2         5.8340    0.9032   10.8475 H         1 RES1    0.0000
      9 H3         5.4247    2.4407   11.1000 H         1 RES1    0.0000
     10 C3         6.8638    2.2301    9.5830 C.3       1 RES1    0.0000
     11 H4         7.2830    1.4688    9.1096 H         1 RES1    0.0000
     12 H5         7.5419    2.6701   10.1552 H         1 RES1    0.0000
     13 C4         6.2403    3.2251    8.5934 C.3       1 RES1    0.0000
     14 H6         6.0159    4.0620    9.0923 H         1 RES1    0.0000
     15 C5         4.9168    2.5301    8.1934 C.3       1 RES1    0.0000
     16 C6         5.2443    1.4607    7.1855 C.2       1 RES1    0.0000
     17 C7         5.9793    1.8176    5.9419 C.3       1 RES1    0.0000
     18 H7         5.4425    2.4482    5.3998 H         1 RES1    0.0000
     19 H8         6.1448    1.0044    5.4019 H         1 RES1    0.0000
     20 C8         7.3198    2.4713    6.3369 C.3       1 RES1    0.0000
     21 H9         7.8604    1.7701    6.8027 H         1 RES1    0.0000
     22 C9         7.0969    3.6151    7.3515 C.3       1 RES1    0.0000
     23 H10        6.6361    4.3658    6.8780 H         1 RES1    0.0000
     24 C10        8.4402    4.1164    7.8383 C.2       1 RES1    0.0000
     25 C11        3.8257    3.4676    7.6956 C.3       1 RES1    0.0000
     26 H11        4.1415    3.9433    6.8994 H         1 RES1    0.0000
     27 H12        3.6067    4.1151    8.3970 H         1 RES1    0.0000
     28 H13        3.0259    2.9476    7.4695 H         1 RES1    0.0000
     29 C12        9.7146    6.0021    8.4520 C.3       1 RES1    0.0000
     30 H14        9.6400    6.9771    8.5202 H         1 RES1    0.0000
     31 H15       10.4250    5.7721    7.8177 H         1 RES1    0.0000
     32 H16        9.9291    5.6283    9.3326 H         1 RES1    0.0000
     33 C13        8.1364    2.9232    5.1046 C.3       1 RES1    0.0000
     34 H17        8.9908    3.3157    5.4477 H         1 RES1    0.0000
     35 C14        7.4491    4.0101    4.2667 C.3       1 RES1    0.0000
     36 H18        8.0450    4.2883    3.5398 H         1 RES1    0.0000
     37 H19        7.2463    4.7814    4.8348 H         1 RES1    0.0000
     38 H20        6.6180    3.6545    3.8880 H         1 RES1    0.0000
     39 C15        8.5142    1.7413    4.2158 C.3       1 RES1    0.0000
     40 H21        9.1928    2.0238    3.5683 H         1 RES1    0.0000
     41 H22        7.7189    1.4238    3.7394 H         1 RES1    0.0000
     42 H23        8.8723    1.0175    4.7707 H         1 RES1    0.0000
@<TRIPOS>BOND
     1    1    4 1
     2    2   24 1
     3    3   24 2
     4    4   16 2
     5    5    1 1
     6    6    5 1
     7    7    5 1
     8    8    7 1
     9    9    7 1
    10   10    7 1
    11   11   10 1
    12   12   10 1
    13   13   10 1
    14   14   13 1
    15   15    5 1
    16   16   15 1
    17   17   16 1
    18   18   17 1
    19   19   17 1
    20   20   17 1
    21   21   20 1
    22   22   13 1
    23   23   22 1
    24   24   22 1
    25   25   15 1
    26   26   25 1
    27   27   25 1
    28   28   25 1
    29   29    2 1
    30   30   29 1
    31   31   29 1
    32   32   29 1
    33   33   20 1
    34   34   33 1
    35   35   33 1
    36   36   35 1
    37   37   35 1
    38   38   35 1
    39   39   33 1
    40   40   39 1
    41   41   39 1
    42   42   39 1
    43   13   15 1
    44   20   22 1
@<TRIPOS>SUBSTRUCTURE
     1 RES1 1

@<TRIPOS>CRYSIN
  22.4524    6.2502   10.4159  90.0000 102.2005  90.0000   5 1

