# MOL2 file generated by ConQuest
# Please check atom types

@<TRIPOS>MOLECULE
ZEVGOZ
    48    52     1
SMALL
NO_CHARGES
****
Generated from CSD

@<TRIPOS>ATOM
      1 O1         7.4766    6.3706    0.7568 O.2       1 RES1    0.0000
      2 O2         6.1792    5.0692    1.8971 O.2       1 RES1    0.0000
      3 N1         7.3032    9.7300    7.3567 N.3       1 RES1    0.0000
      4 N2         6.9537    6.0274    1.8094 N.pl3     1 RES1    0.0000
      5 N3         4.8897    6.6642    3.6712 N.3       1 RES1    0.0000
      6 N4         4.4777    8.5590    6.4873 N.1       1 RES1    0.0000
      7 C1         7.7662    8.4244    5.2122 C.ar      1 RES1    0.0000
      8 C2         8.8320    8.0142    4.3647 C.ar      1 RES1    0.0000
      9 C3        10.2401    8.3902    4.7514 C.3       1 RES1    0.0000
     10 H1        10.5767    7.7308    5.3777 H         1 RES1    0.0000
     11 H2        10.8000    8.3549    3.9595 H         1 RES1    0.0000
     12 C4        10.3693    9.7438    5.3673 C.3       1 RES1    0.0000
     13 H3        11.2466    9.8371    5.7714 H         1 RES1    0.0000
     14 H4        10.2790   10.4247    4.6819 H         1 RES1    0.0000
     15 C5         9.3239    9.9368    6.4000 C.2       1 RES1    0.0000
     16 C6         8.1084    9.3038    6.3039 C.2       1 RES1    0.0000
     17 C7         9.3030   10.7580    7.5624 C.ar      1 RES1    0.0000
     18 C8         8.0206   10.6138    8.1343 C.ar      1 RES1    0.0000
     19 C9         7.6361   11.2719    9.3094 C.ar      1 RES1    0.0000
     20 C10        8.5967   12.0839    9.8883 C.ar      1 RES1    0.0000
     21 H5         8.3795   12.5498   10.6628 H         1 RES1    0.0000
     22 C11        9.8867   12.2301    9.3511 C.ar      1 RES1    0.0000
     23 H6        10.5028   12.7760    9.7841 H         1 RES1    0.0000
     24 C12       10.2557   11.5788    8.1945 C.ar      1 RES1    0.0000
     25 H7        11.1099   11.6790    7.8414 H         1 RES1    0.0000
     26 C13        6.2667   11.0831    9.8999 C.3       1 RES1    0.0000
     27 H8         5.6013   11.2951    9.2411 H         1 RES1    0.0000
     28 H9         6.1624   11.6641   10.6582 H         1 RES1    0.0000
     29 H10        6.1609   10.1705   10.1789 H         1 RES1    0.0000
     30 C14        8.5609    7.2023    3.2602 C.ar      1 RES1    0.0000
     31 C15        9.6715    6.6747    2.4046 C.ar      1 RES1    0.0000
     32 C16       10.3264    7.4930    1.4854 C.ar      1 RES1    0.0000
     33 H11       10.0862    8.3881    1.4101 H         1 RES1    0.0000
     34 C17       11.3322    6.9830    0.6819 C.ar      1 RES1    0.0000
     35 H12       11.7623    7.5370    0.0706 H         1 RES1    0.0000
     36 C18       11.7040    5.6489    0.7826 C.ar      1 RES1    0.0000
     37 H13       12.3762    5.3074    0.2397 H         1 RES1    0.0000
     38 C19       11.0678    4.8306    1.6961 C.ar      1 RES1    0.0000
     39 H14       11.3147    3.9381    1.7737 H         1 RES1    0.0000
     40 C20       10.0548    5.3463    2.5030 C.ar      1 RES1    0.0000
     41 H15        9.6294    4.7908    3.1155 H         1 RES1    0.0000
     42 C21        7.2402    6.7935    3.0067 C.ar      1 RES1    0.0000
     43 C22        6.1639    7.1078    3.8611 C.ar      1 RES1    0.0000
     44 C23        6.4613    7.9572    4.9482 C.ar      1 RES1    0.0000
     45 C24        5.3667    8.3170    5.8015 C.1       1 RES1    0.0000
     46 H16        6.5364    9.3983    7.5485 H         1 RES1    0.0000
     47 H17        4.7036    6.1013    2.9754 H         1 RES1    0.0000
     48 H18        4.2413    6.9854    4.1910 H         1 RES1    0.0000
@<TRIPOS>BOND
     1    1    4 2
     2    2    4 2
     3    3   16 1
     4    4   42 1
     5    5   43 1
     6    6   45 3
     7    7    8 ar
     8    8    9 1
     9    9   10 1
    10   11    9 1
    11   12    9 1
    12   13   12 1
    13   14   12 1
    14   15   12 1
    15   16    7 1
    16   17   15 1
    17   18    3 1
    18   19   18 ar
    19   20   19 ar
    20   21   20 1
    21   22   20 ar
    22   23   22 1
    23   24   17 ar
    24   25   24 1
    25   26   19 1
    26   27   26 1
    27   28   26 1
    28   29   26 1
    29   30    8 ar
    30   31   30 1
    31   32   31 ar
    32   33   32 1
    33   34   32 ar
    34   35   34 1
    35   36   34 ar
    36   37   36 1
    37   38   36 ar
    38   39   38 1
    39   40   31 ar
    40   41   40 1
    41   42   30 ar
    42   43   42 ar
    43   44    7 ar
    44   45   44 1
    45   46    3 1
    46   47    5 1
    47   48    5 1
    48   15   16 2
    49   17   18 ar
    50   22   24 ar
    51   38   40 ar
    52   43   44 ar
@<TRIPOS>SUBSTRUCTURE
     1 RES1 1

@<TRIPOS>CRYSIN
   8.7409    9.6037   12.1665  72.2990  87.3660  72.9550   2 1

