# MOL2 file generated by ConQuest
# Please check atom types

@<TRIPOS>MOLECULE
ZEVGUF
    60    49     2
SMALL
NO_CHARGES
****
Generated from CSD

@<TRIPOS>ATOM
      1 O1         3.9238    2.6700    0.3545 O.2       1 RES1    0.0000
      2 O2         5.1531    0.9136    0.6195 O.2       1 RES1    0.0000
      3 N1         2.4608    1.1282    7.3383 N.pl3     1 RES1    0.0000
      4 H1         2.3198    0.3095    7.1151 H         1 RES1    0.0000
      5 N2         4.4433    1.8198    1.0624 N.pl3     1 RES1    0.0000
      6 N3         3.4174   -0.5020    2.3779 N.pl3     1 RES1    0.0000
      7 H2         2.6580   -0.8604    2.5892 H         1 RES1    0.0000
      8 H3         3.4176   -0.3364    1.5286 H         1 RES1    0.0000
      9 N4         2.0240   -1.3701    5.2271 N.1       1 RES1    0.0000
     10 C1         3.4278    1.9133    5.1625 C.ar      1 RES1    0.0000
     11 C2         4.0344    3.0560    4.5764 C.ar      1 RES1    0.0000
     12 C3         4.4214    4.2235    5.4363 C.3       1 RES1    0.0000
     13 H4         4.5138    5.0072    4.8728 H         1 RES1    0.0000
     14 H5         5.2883    4.0426    5.8324 H         1 RES1    0.0000
     15 C4         3.4484    4.5373    6.5369 C.3       1 RES1    0.0000
     16 H6         3.8431    5.1639    7.1629 H         1 RES1    0.0000
     17 H7         2.6463    4.9378    6.1674 H         1 RES1    0.0000
     18 C5         3.1138    3.2765    7.2251 C.2       1 RES1    0.0000
     19 C6         3.0567    2.0917    6.5445 C.2       1 RES1    0.0000
     20 C7         2.1357    1.7004    8.5390 C.ar      1 RES1    0.0000
     21 C8         2.5335    3.0508    8.5117 C.ar      1 RES1    0.0000
     22 C9         2.2999    3.8518    9.6372 C.ar      1 RES1    0.0000
     23 H8         2.5625    4.7439    9.6458 H         1 RES1    0.0000
     24 C10        1.6764    3.2937   10.7289 C.ar      1 RES1    0.0000
     25 H9         1.5281    3.8157   11.4841 H         1 RES1    0.0000
     26 C11        1.2587    1.9565   10.7279 C.ar      1 RES1    0.0000
     27 H10        0.8192    1.6136   11.4721 H         1 RES1    0.0000
     28 C12        1.4876    1.1437    9.6452 C.ar      1 RES1    0.0000
     29 H11        1.2208    0.2530    9.6472 H         1 RES1    0.0000
     30 C13        4.3569    3.0484    3.1928 C.ar      1 RES1    0.0000
     31 C14        4.9190    4.2274    2.4724 C.ar      1 RES1    0.0000
     32 C15        4.1581    5.3590    2.2102 C.ar      1 RES1    0.0000
     33 H12        3.2866    5.4162    2.5294 H         1 RES1    0.0000
     34 C16        4.6922    6.4019    1.4751 C.ar      1 RES1    0.0000
     35 H13        4.1776    7.1556    1.2946 H         1 RES1    0.0000
     36 C17        5.9989    6.3211    1.0063 C.ar      1 RES1    0.0000
     37 H14        6.3573    7.0197    0.5077 H         1 RES1    0.0000
     38 C18        6.7632    5.2108    1.2769 C.ar      1 RES1    0.0000
     39 H15        7.6409    5.1645    0.9730 H         1 RES1    0.0000
     40 C19        6.2239    4.1572    2.0060 C.ar      1 RES1    0.0000
     41 H16        6.7395    3.4032    2.1812 H         1 RES1    0.0000
     42 C20        4.1972    1.8486    2.5003 C.ar      1 RES1    0.0000
     43 C21        3.6024    0.6607    3.0598 C.ar      1 RES1    0.0000
     44 C22        3.2053    0.7666    4.4076 C.ar      1 RES1    0.0000
     45 C23        2.5417   -0.3947    4.9233 C.1       1 RES1    0.0000
     46 C24        4.0618    4.3984    6.7216 Du        2 SUP2    0.0000
     47 H17        3.8062    5.2472    7.1151 Du        2 SUP2    0.0000
     48 H18        4.9740    4.2029    6.9875 Du        2 SUP2    0.0000
     49 C25        3.9758    4.4863    5.2330 Du        2 SUP2    0.0000
     50 H19        4.7081    5.0388    4.9193 Du        2 SUP2    0.0000
     51 H20        3.1513    4.9412    5.0030 Du        2 SUP2    0.0000
     52 C26        3.6655    0.7611    4.4939 Du        2 SUP2    0.0000
     53 C27        4.0090    0.6715    3.1222 Du        2 SUP2    0.0000
     54 N5         4.0115   -0.5579    2.5228 Du        2 SUP2    0.0000
     55 H21        3.3386   -1.0497    2.7992 Du        2 SUP2    0.0000
     56 H22        3.9272   -0.4655    1.6562 Du        2 SUP2    0.0000
     57 C28        3.4604   -0.4807    5.1333 Du        2 SUP2    0.0000
     58 N6         3.3561   -1.5492    5.5453 Du        2 SUP2    0.0000
     59 C29        3.5969    2.0238    5.1732 Du        2 SUP2    0.0000
     60 C30        4.0172    3.1898    4.4900 Du        2 SUP2    0.0000
@<TRIPOS>BOND
     1    1    5 2
     2    2    5 2
     3    3    4 1
     4    5   42 1
     5    6    7 1
     6    8    6 1
     7    9   45 3
     8   10   11 ar
     9   11   12 1
    10   12   13 1
    11   14   12 1
    12   15   12 1
    13   16   15 1
    14   17   15 1
    15   18   15 1
    16   19    3 1
    17   20    3 1
    18   21   18 1
    19   22   21 ar
    20   23   22 1
    21   24   22 ar
    22   25   24 1
    23   26   24 ar
    24   27   26 1
    25   28   20 ar
    26   29   28 1
    27   30   11 ar
    28   31   30 1
    29   32   31 ar
    30   33   32 1
    31   34   32 ar
    32   35   34 1
    33   36   34 ar
    34   37   36 1
    35   38   36 ar
    36   39   38 1
    37   40   31 ar
    38   41   40 1
    39   42   30 ar
    40   43    6 1
    41   44   10 ar
    42   45   44 1
    43   10   19 1
    44   18   19 2
    45   20   21 ar
    46   26   28 ar
    47   38   40 ar
    48   42   43 ar
    49   43   44 ar
@<TRIPOS>SUBSTRUCTURE
     1 RES1 1
     2 SUP2 46

@<TRIPOS>CRYSIN
   8.3973    8.5161   14.1035  97.8480 104.2220 108.6090   2 1

