# MOL2 file generated by ConQuest
# Please check atom types

@<TRIPOS>MOLECULE
ZEVJOB
    31    33     1
SMALL
NO_CHARGES
****
Generated from CSD

@<TRIPOS>ATOM
      1 O1        13.0020    1.0136    2.5854 O.2       1 RES1    0.0000
      2 O2        12.0226    2.5964    6.2422 O.3       1 RES1    0.0000
      3 O3        15.1682    0.2339    7.2064 O.2       1 RES1    0.0000
      4 N1        15.3532   -0.1023    5.9137 N.pl3     1 RES1    0.0000
      5 N2        15.1700   -0.2707    3.7612 N.pl3     1 RES1    0.0000
      6 H1        14.8805   -0.1710    2.9363 H         1 RES1    0.0000
      7 C1        12.7299    1.5208    3.6828 C.2       1 RES1    0.0000
      8 C2        13.4886    1.2227    4.9046 C.2       1 RES1    0.0000
      9 C3        13.0967    1.7729    6.0928 C.2       1 RES1    0.0000
     10 H2        13.6087    1.5673    6.8667 H         1 RES1    0.0000
     11 C4        11.3004    2.9491    5.1174 C.ar      1 RES1    0.0000
     12 C5        11.6176    2.4609    3.8570 C.ar      1 RES1    0.0000
     13 C6        10.8324    2.8830    2.7708 C.ar      1 RES1    0.0000
     14 H3        11.0339    2.5734    1.8962 H         1 RES1    0.0000
     15 C7         9.7755    3.7389    2.9624 C.ar      1 RES1    0.0000
     16 H4         9.2543    4.0220    2.2197 H         1 RES1    0.0000
     17 C8         9.4603    4.2001    4.2614 C.ar      1 RES1    0.0000
     18 H5         8.7193    4.7822    4.3920 H         1 RES1    0.0000
     19 C9        10.2246    3.8049    5.3389 C.ar      1 RES1    0.0000
     20 H6        10.0223    4.1110    6.2148 H         1 RES1    0.0000
     21 C10       14.6257    0.3309    4.8673 C.2       1 RES1    0.0000
     22 C11       16.2355   -1.0508    4.1357 C.2       1 RES1    0.0000
     23 C12       16.3715   -0.9622    5.4882 C.2       1 RES1    0.0000
     24 C13       17.3004   -1.5846    6.4611 C.3       1 RES1    0.0000
     25 H7        17.9424   -2.1517    5.9846 H         1 RES1    0.0000
     26 H8        16.7913   -2.1304    7.0969 H         1 RES1    0.0000
     27 H9        17.7821   -0.8833    6.9476 H         1 RES1    0.0000
     28 C14       17.0267   -1.8540    3.1391 C.3       1 RES1    0.0000
     29 H10       17.7405   -2.3390    3.6044 H         1 RES1    0.0000
     30 H11       17.4199   -1.2519    2.4735 H         1 RES1    0.0000
     31 H12       16.4354   -2.4936    2.6924 H         1 RES1    0.0000
@<TRIPOS>BOND
     1    1    7 2
     2    2    9 1
     3    3    4 1
     4    4   21 2
     5    5    6 1
     6    7    8 1
     7    8    9 2
     8    9   10 1
     9   11    2 1
    10   12    7 1
    11   13   12 ar
    12   14   13 1
    13   15   13 ar
    14   16   15 1
    15   17   15 ar
    16   18   17 1
    17   19   11 ar
    18   20   19 1
    19   21    5 1
    20   22    5 1
    21   23    4 1
    22   24   23 1
    23   25   24 1
    24   26   24 1
    25   27   24 1
    26   28   22 1
    27   29   28 1
    28   30   28 1
    29   31   28 1
    30    8   21 1
    31   11   12 ar
    32   17   19 ar
    33   22   23 2
@<TRIPOS>SUBSTRUCTURE
     1 RES1 1

@<TRIPOS>CRYSIN
  20.8148    4.4300   12.4420  90.0000  90.0000  90.0000  29 1

