# MOL2 file generated by ConQuest
# Please check atom types

@<TRIPOS>MOLECULE
ZEWFAK
    57    58     1
SMALL
NO_CHARGES
****
Generated from CSD

@<TRIPOS>ATOM
      1 C1        -1.8094    2.0068    7.7607 C.2       1 RES1    0.0000
      2 H1        -1.3189    1.2707    8.1060 H         1 RES1    0.0000
      3 H2        -2.6461    1.8619    7.3334 H         1 RES1    0.0000
      4 C2        -1.3246    3.2423    7.8743 C.2       1 RES1    0.0000
      5 H3        -1.8360    3.9606    7.5192 H         1 RES1    0.0000
      6 C3        -0.0563    3.5517    8.5114 C.2       1 RES1    0.0000
      7 H4         0.4789    2.8032    8.7496 H         1 RES1    0.0000
      8 C4         0.4657    4.7665    8.8086 C.2       1 RES1    0.0000
      9 C5        -0.3096    6.0124    8.5310 C.3       1 RES1    0.0000
     10 H5        -1.1326    5.7859    8.0098 H         1 RES1    0.0000
     11 C6        -0.7039    6.7712    9.8074 C.3       1 RES1    0.0000
     12 H6         0.1122    6.9995   10.3188 H         1 RES1    0.0000
     13 H7        -1.1565    7.6166    9.5604 H         1 RES1    0.0000
     14 C7        -1.6226    5.9449   10.6706 C.3       1 RES1    0.0000
     15 H8        -2.2806    5.4853   10.0904 H         1 RES1    0.0000
     16 H9        -1.0896    5.2489   11.1307 H         1 RES1    0.0000
     17 C8        -2.3628    6.7509   11.7000 C.3       1 RES1    0.0000
     18 H10       -2.8300    7.4977   11.2487 H         1 RES1    0.0000
     19 H11       -1.7084    7.1434   12.3316 H         1 RES1    0.0000
     20 C9        -3.3897    5.9272   12.4944 C.3       1 RES1    0.0000
     21 H12       -3.8370    6.5053   13.1468 H         1 RES1    0.0000
     22 H13       -2.9321    5.1986   12.9621 H         1 RES1    0.0000
     23 H14       -4.0545    5.5544   11.8781 H         1 RES1    0.0000
     24 C10        1.8356    4.8909    9.4457 C.3       1 RES1    0.0000
     25 H15        1.7496    5.6291   10.1144 H         1 RES1    0.0000
     26 C11        2.2400    3.6937   10.2324 C.2       1 RES1    0.0000
     27 H16        1.6263    3.3936   10.8914 H         1 RES1    0.0000
     28 C12        3.3425    3.0143   10.1155 C.2       1 RES1    0.0000
     29 H17        3.9927    3.2701    9.4719 H         1 RES1    0.0000
     30 H18        3.4972    2.2620   10.6750 H         1 RES1    0.0000
     31 C13        2.9015    5.3564    8.4698 C.ar      1 RES1    0.0000
     32 C14        3.7403    6.3946    8.8304 C.ar      1 RES1    0.0000
     33 H19        3.6306    6.8170    9.6740 H         1 RES1    0.0000
     34 C15        4.7362    6.8266    7.9781 C.ar      1 RES1    0.0000
     35 H20        5.3030    7.5437    8.2371 H         1 RES1    0.0000
     36 C16        4.9128    6.2220    6.7488 C.ar      1 RES1    0.0000
     37 H21        5.6040    6.5096    6.1642 H         1 RES1    0.0000
     38 C17        4.0781    5.2044    6.3893 C.ar      1 RES1    0.0000
     39 H22        4.1879    4.7861    5.5435 H         1 RES1    0.0000
     40 C18        3.0797    4.7716    7.2329 C.ar      1 RES1    0.0000
     41 H23        2.5069    4.0644    6.9608 H         1 RES1    0.0000
     42 C19        0.5074    6.7448    6.4461 C.2       1 RES1    0.0000
     43 O1        -0.2209    5.9574    5.8877 O.2       1 RES1    0.0000
     44 O2         0.5228    6.9575    7.7541 O.3       1 RES1    0.0000
     45 C20        1.5022    7.5929    5.7085 C.ar      1 RES1    0.0000
     46 C21        1.6035    7.3888    4.3426 C.ar      1 RES1    0.0000
     47 H24        1.0442    6.7542    3.9109 H         1 RES1    0.0000
     48 C22        2.5248    8.1138    3.6115 C.ar      1 RES1    0.0000
     49 H25        2.6068    7.9822    2.6739 H         1 RES1    0.0000
     50 C23        3.3157    9.0207    4.2540 C.ar      1 RES1    0.0000
     51 C24        3.2353    9.2315    5.5905 C.ar      1 RES1    0.0000
     52 H26        3.8004    9.8699    6.0101 H         1 RES1    0.0000
     53 C25        2.3192    8.5070    6.3390 C.ar      1 RES1    0.0000
     54 H27        2.2557    8.6406    7.2777 H         1 RES1    0.0000
     55 N1         4.2907    9.8063    3.4662 N.pl3     1 RES1    0.0000
     56 O3         4.3532    9.6028    2.2565 O.2       1 RES1    0.0000
     57 O4         4.9450   10.6314    4.0421 O.2       1 RES1    0.0000
@<TRIPOS>BOND
     1    1    2 1
     2    3    1 1
     3    4    1 2
     4    5    4 1
     5    6    4 1
     6    7    6 1
     7    8    6 2
     8    9    8 1
     9   10    9 1
    10   11    9 1
    11   12   11 1
    12   13   11 1
    13   14   11 1
    14   15   14 1
    15   16   14 1
    16   17   14 1
    17   18   17 1
    18   19   17 1
    19   20   17 1
    20   21   20 1
    21   22   20 1
    22   23   20 1
    23   24    8 1
    24   25   24 1
    25   26   24 1
    26   27   26 1
    27   28   26 2
    28   29   28 1
    29   30   28 1
    30   31   24 1
    31   32   31 ar
    32   33   32 1
    33   34   32 ar
    34   35   34 1
    35   36   34 ar
    36   37   36 1
    37   38   36 ar
    38   39   38 1
    39   40   31 ar
    40   41   40 1
    41   42   43 2
    42   44    9 1
    43   45   42 1
    44   46   45 ar
    45   47   46 1
    46   48   46 ar
    47   49   48 1
    48   50   48 ar
    49   51   50 ar
    50   52   51 1
    51   53   45 ar
    52   54   53 1
    53   55   50 1
    54   56   55 2
    55   57   55 2
    56   38   40 ar
    57   42   44 1
    58   51   53 ar
@<TRIPOS>SUBSTRUCTURE
     1 RES1 1

@<TRIPOS>CRYSIN
   8.6720   11.7230   11.7840 104.7710 103.9410  96.9990   2 1

