# MOL2 file generated by ConQuest
# Please check atom types

@<TRIPOS>MOLECULE
ZEWTUT
    45    47     1
SMALL
NO_CHARGES
****
Generated from CSD

@<TRIPOS>ATOM
      1 C1         3.0206    8.9023   20.1044 C.3       1 RES1    0.0000
      2 C2         2.5736    8.3535   18.7748 C.2       1 RES1    0.0000
      3 C3         1.5921    7.4656   18.7218 C.2       1 RES1    0.0000
      4 C4         0.9451    6.9328   19.9800 C.3       1 RES1    0.0000
      5 C5         1.4582    7.7581   21.1660 C.3       1 RES1    0.0000
      6 C6         2.0044    9.9273   20.5983 C.3       1 RES1    0.0000
      7 C7         1.2386    5.4434   20.2478 C.3       1 RES1    0.0000
      8 C8         0.6179    4.3968   19.3222 C.3       1 RES1    0.0000
      9 C9        -0.8946    4.5523   19.2397 C.3       1 RES1    0.0000
     10 C10        1.0330    2.9971   19.7691 C.3       1 RES1    0.0000
     11 C11        1.6610    4.4922   15.7143 C.ar      1 RES1    0.0000
     12 C12        1.1999    4.1347   14.4514 C.ar      1 RES1    0.0000
     13 C13        1.8643    4.6169   13.3380 C.ar      1 RES1    0.0000
     14 C14        2.9920    5.4092   13.4167 C.ar      1 RES1    0.0000
     15 C15        3.4318    5.7228   14.6978 C.ar      1 RES1    0.0000
     16 C16        2.7926    5.2964   15.8442 C.ar      1 RES1    0.0000
     17 C17        0.8767    4.0234   16.9064 C.2       1 RES1    0.0000
     18 H1         3.9012    9.2514   20.0939 H         1 RES1    0.0000
     19 H2         3.0206    8.6122   17.9636 H         1 RES1    0.0000
     20 H3         1.2834    7.1527   17.8700 H         1 RES1    0.0000
     21 H4        -0.0056    7.0596   19.9183 H         1 RES1    0.0000
     22 H5         1.1949    7.3347   21.9900 H         1 RES1    0.0000
     23 H6         2.3719   10.4978   21.2643 H         1 RES1    0.0000
     24 H7         1.7052   10.4823   19.8656 H         1 RES1    0.0000
     25 H8         0.9467    5.2339   21.1297 H         1 RES1    0.0000
     26 H9         2.1842    5.3229   20.1992 H         1 RES1    0.0000
     27 H10       -1.2801    4.3868   20.0968 H         1 RES1    0.0000
     28 H11       -1.1098    5.4460   18.9761 H         1 RES1    0.0000
     29 H12       -1.2492    3.9441   18.6103 H         1 RES1    0.0000
     30 H13        0.6381    2.7980   20.6001 H         1 RES1    0.0000
     31 H14        1.9758    2.9511   19.8305 H         1 RES1    0.0000
     32 H15        0.7305    2.3656   19.1136 H         1 RES1    0.0000
     33 H16        0.4515    3.5541   14.3557 H         1 RES1    0.0000
     34 H17        3.4385    5.7128   12.6234 H         1 RES1    0.0000
     35 H18        3.1237    5.5391   16.7142 H         1 RES1    0.0000
     36 N1         1.3215    4.2930   12.0037 N.pl3     1 RES1    0.0000
     37 N2         4.6250    6.5698   14.8420 N.pl3     1 RES1    0.0000
     38 O1         0.9423    9.0912   21.1037 O.3       1 RES1    0.0000
     39 O2         2.8589    7.8770   21.1092 O.3       1 RES1    0.0000
     40 O3         1.2557    4.6617   18.0026 O.3       1 RES1    0.0000
     41 O4         0.0028    3.1965   16.8101 O.2       1 RES1    0.0000
     42 O5         0.2566    3.6960   11.9522 O.2       1 RES1    0.0000
     43 O6         1.9607    4.6594   11.0254 O.2       1 RES1    0.0000
     44 O7         5.1869    6.9538   13.8217 O.2       1 RES1    0.0000
     45 O8         5.0092    6.8359   15.9765 O.2       1 RES1    0.0000
@<TRIPOS>BOND
     1    1    2 1
     2    2    3 2
     3    3    4 1
     4    4    5 1
     5    5   22 1
     6    6    1 1
     7    7    4 1
     8    8    7 1
     9    9    8 1
    10   10    8 1
    11   11   12 ar
    12   12   13 ar
    13   13   14 ar
    14   14   15 ar
    15   15   16 ar
    16   16   11 ar
    17   17   11 1
    18   18    1 1
    19   19    2 1
    20   20    3 1
    21   21    4 1
    22   23    6 1
    23   24    6 1
    24   25    7 1
    25   26    7 1
    26   27    9 1
    27   28    9 1
    28   29    9 1
    29   30   10 1
    30   31   10 1
    31   32   10 1
    32   33   12 1
    33   34   14 1
    34   35   16 1
    35   36   13 1
    36   37   15 1
    37   38    5 1
    38   39    1 1
    39   40    8 1
    40   41   17 2
    41   42   36 2
    42   43   36 2
    43   44   37 2
    44   45   37 2
    45    5   39 1
    46    6   38 1
    47   17   40 1
@<TRIPOS>SUBSTRUCTURE
     1 RES1 1

@<TRIPOS>CRYSIN
   5.6020   10.3437   29.2615  90.0000  90.0000  90.0000  19 1

