# MOL2 file generated by ConQuest
# Please check atom types

@<TRIPOS>MOLECULE
ZEWTON
    45    47     1
SMALL
NO_CHARGES
****
Generated from CSD

@<TRIPOS>ATOM
      1 C1         8.4938    5.1826   13.1603 C.3       1 RES1    0.0000
      2 C2         8.0704    4.4361   11.9236 C.2       1 RES1    0.0000
      3 C3         7.2296    3.4268   11.9986 C.2       1 RES1    0.0000
      4 C4         6.6340    3.0022   13.3241 C.3       1 RES1    0.0000
      5 C5         7.4293    3.7250   14.4246 C.3       1 RES1    0.0000
      6 C6         8.9447    3.3856   14.4093 C.3       1 RES1    0.0000
      7 C7         5.1372    3.3253   13.4649 C.3       1 RES1    0.0000
      8 C8         4.1601    2.6647   12.4991 C.3       1 RES1    0.0000
      9 C9         2.7282    2.9982   12.9032 C.3       1 RES1    0.0000
     10 C10        4.4217    1.1717   12.3873 C.3       1 RES1    0.0000
     11 C11        4.3588    3.7093    8.8990 C.ar      1 RES1    0.0000
     12 C12        5.1169    4.8740    9.0292 C.ar      1 RES1    0.0000
     13 C13        5.5234    5.5126    7.8705 C.ar      1 RES1    0.0000
     14 C14        5.2643    5.0468    6.6046 C.ar      1 RES1    0.0000
     15 C15        4.5230    3.8659    6.5235 C.ar      1 RES1    0.0000
     16 C16        4.0594    3.2093    7.6378 C.ar      1 RES1    0.0000
     17 C17        3.9115    2.9170   10.0807 C.2       1 RES1    0.0000
     18 H1         8.7299    6.1327   12.9629 H         1 RES1    0.0000
     19 H2         8.4067    4.7151   11.0802 H         1 RES1    0.0000
     20 H3         6.9925    2.9576   11.2149 H         1 RES1    0.0000
     21 H4         6.7543    2.0243   13.4282 H         1 RES1    0.0000
     22 H5         7.0471    3.5857   15.3185 H         1 RES1    0.0000
     23 H6         9.2575    3.2540   15.3001 H         1 RES1    0.0000
     24 H7         9.1012    2.5579   13.8996 H         1 RES1    0.0000
     25 H8         4.8911    3.0562   14.3726 H         1 RES1    0.0000
     26 H9         5.0301    4.3003   13.4052 H         1 RES1    0.0000
     27 H10        2.1028    2.6078   12.2680 H         1 RES1    0.0000
     28 H11        2.5729    2.6473   13.7833 H         1 RES1    0.0000
     29 H12        2.6099    3.9668   12.9246 H         1 RES1    0.0000
     30 H13        3.7210    0.7216   11.9159 H         1 RES1    0.0000
     31 H14        4.4918    0.7987   13.2659 H         1 RES1    0.0000
     32 H15        5.2441    1.0156   11.9174 H         1 RES1    0.0000
     33 H16        5.3359    5.2092    9.8878 H         1 RES1    0.0000
     34 H17        5.5468    5.4882    5.8286 H         1 RES1    0.0000
     35 H18        3.5473    2.4025    7.5353 H         1 RES1    0.0000
     36 N1         6.3322    6.7370    8.0036 N.pl3     1 RES1    0.0000
     37 N2         4.2746    3.2870    5.1980 N.pl3     1 RES1    0.0000
     38 O1         9.5709    4.4906   13.7955 O.3       1 RES1    0.0000
     39 O2         7.4469    5.1182   14.1261 O.3       1 RES1    0.0000
     40 O3         4.4361    3.3520   11.2081 O.3       1 RES1    0.0000
     41 O4         3.1718    1.9582    9.9506 O.2       1 RES1    0.0000
     42 O5         6.6074    7.1297    9.1286 O.2       1 RES1    0.0000
     43 O6         6.6514    7.3264    6.9766 O.2       1 RES1    0.0000
     44 O7         4.7113    3.8839    4.2250 O.2       1 RES1    0.0000
     45 O8         3.6595    2.2372    5.1444 O.2       1 RES1    0.0000
@<TRIPOS>BOND
     1    1    2 1
     2    2    3 2
     3    3    4 1
     4    4    5 1
     5    5    6 1
     6    6   23 1
     7    7    4 1
     8    8    7 1
     9    9    8 1
    10   10    8 1
    11   11   12 ar
    12   12   13 ar
    13   13   14 ar
    14   14   15 ar
    15   15   16 ar
    16   16   11 ar
    17   17   11 1
    18   18    1 1
    19   19    2 1
    20   20    3 1
    21   21    4 1
    22   22    5 1
    23   24    6 1
    24   25    7 1
    25   26    7 1
    26   27    9 1
    27   28    9 1
    28   29    9 1
    29   30   10 1
    30   31   10 1
    31   32   10 1
    32   33   12 1
    33   34   14 1
    34   35   16 1
    35   36   13 1
    36   37   15 1
    37   38    1 1
    38   39    1 1
    39   40    8 1
    40   41   17 2
    41   42   36 2
    42   43   36 2
    43   44   37 2
    44   45   37 2
    45    5   39 1
    46    6   38 1
    47   17   40 1
@<TRIPOS>SUBSTRUCTURE
     1 RES1 1

@<TRIPOS>CRYSIN
   9.7352    5.8003   15.9527  90.0000 106.3670  90.0000   4 1

