# MOL2 file generated by ConQuest
# Please check atom types

@<TRIPOS>MOLECULE
ZEWVUU
    33    30     2
SMALL
NO_CHARGES
****
Generated from CSD

@<TRIPOS>ATOM
      1 C1         4.3509   10.3054    3.7879 C.2       1 RES1    0.0000
      2 C2         4.8056   11.6114    3.4032 C.1       1 RES1    0.0000
      3 C3         5.4122    9.3247    4.1859 C.2       1 RES1    0.0000
      4 C4         4.3324    9.0617    6.4072 C.3       1 RES1    0.0000
      5 H1         3.7067    9.7512    6.0716 H         1 RES1    0.0000
      6 H2         4.8245    9.4415    7.1779 H         1 RES1    0.0000
      7 C5         6.2168    7.6416    5.7392 C.3       1 RES1    0.0000
      8 H3         6.7948    7.9593    6.4777 H         1 RES1    0.0000
      9 H4         6.7952    7.4064    4.9716 H         1 RES1    0.0000
     10 N1         5.1572   12.6552    3.1249 N.1       1 RES1    0.0000
     11 N2         5.2789    8.7013    5.3494 N.am      1 RES1    0.0000
     12 O1         2.7135    9.0063    3.7508 O.3       1 RES1    0.0000
     13 H5         1.8889    8.9412    3.6060 H         1 RES1    0.0000
     14 O2         6.3477    9.1587    3.3906 O.2       1 RES1    0.0000
     15 N3         3.1133   10.2670    3.5071 N.2       1 RES1    0.0000
     16 N4         3.1800    9.7528    3.7350 Du        2 SUP2    0.0000
     17 O3         2.2610   10.6015    3.1910 Du        2 SUP2    0.0000
     18 H6         1.5415   10.1880    3.0601 Du        2 SUP2    0.0000
     19 C1B        5.4192    5.1826    8.8049 C.2       1 RES1    0.0000
     20 C2B        4.9645    3.8766    9.1896 C.1       1 RES1    0.0000
     21 C3B        4.3579    6.1633    8.4070 C.2       1 RES1    0.0000
     22 C4B        5.4377    6.4263    6.1856 C.3       1 RES1    0.0000
     23 H1B        6.0633    5.7368    6.5212 H         1 RES1    0.0000
     24 H2B        4.9456    6.0465    5.4149 H         1 RES1    0.0000
     25 C5B        3.5533    7.8464    6.8536 C.3       1 RES1    0.0000
     26 H3B        2.9752    7.5287    6.1151 H         1 RES1    0.0000
     27 H4B        2.9748    8.0816    7.6212 H         1 RES1    0.0000
     28 N1B        4.6129    2.8328    9.4679 N.1       1 RES1    0.0000
     29 N2B        4.4912    6.7867    7.2434 N.am      1 RES1    0.0000
     30 O1B        7.0566    6.4817    8.8420 O.3       1 RES1    0.0000
     31 H5B        7.8812    6.5468    8.9869 H         1 RES1    0.0000
     32 O2B        3.4224    6.3293    9.2022 O.2       1 RES1    0.0000
     33 N3B        6.6568    5.2210    9.0857 N.2       1 RES1    0.0000
@<TRIPOS>BOND
     1    1    2 1
     2    2   10 3
     3    3    1 1
     4    4    5 1
     5    6    4 1
     6    7    8 1
     7    9    7 1
     8   11    3 1
     9   12   13 1
    10   14    3 2
    11   15    1 2
    12   19   20 1
    13   20   28 3
    14   21   19 1
    15   22    7 1
    16   23   22 1
    17   24   22 1
    18   25    4 1
    19   26   25 1
    20   27   25 1
    21   29   21 1
    22   30   31 1
    23   32   21 2
    24   33   19 2
    25    4   11 1
    26    7   11 1
    27   12   15 1
    28   22   29 1
    29   25   29 1
    30   30   33 1
@<TRIPOS>SUBSTRUCTURE
     1 RES1 1
     2 SUP2 16

@<TRIPOS>CRYSIN
   6.2980   15.4880    6.4530  90.0000 102.6480  90.0000 231 1

