# MOL2 file generated by ConQuest
# Please check atom types

@<TRIPOS>MOLECULE
ZEYROM
    49    52     1
SMALL
NO_CHARGES
****
Generated from CSD

@<TRIPOS>ATOM
      1 C1        14.2337   -0.7283   -0.8836 C.3       1 RES1    0.0000
      2 H1        13.8897   -1.6331   -0.7304 H         1 RES1    0.0000
      3 H2        15.1681   -0.7781   -1.1736 H         1 RES1    0.0000
      4 H3        13.6990   -0.2892   -1.5781 H         1 RES1    0.0000
      5 O1        14.1516    0.0207    0.3234 O.3       1 RES1    0.0000
      6 C2        12.8968    0.3312    0.7790 C.ar      1 RES1    0.0000
      7 C3        12.8436    1.1363    1.9101 C.ar      1 RES1    0.0000
      8 H4        13.6564    1.4288    2.3071 H         1 RES1    0.0000
      9 C4        11.6309    1.5284    2.4816 C.ar      1 RES1    0.0000
     10 C5        10.4287    1.0769    1.9032 C.ar      1 RES1    0.0000
     11 C6        10.5107    0.2796    0.7599 C.ar      1 RES1    0.0000
     12 H5         9.7035   -0.0195    0.3576 H         1 RES1    0.0000
     13 C7        11.7167   -0.0962    0.1853 C.ar      1 RES1    0.0000
     14 H6        11.7343   -0.6346   -0.5978 H         1 RES1    0.0000
     15 C8        11.6862    2.5060    3.6390 C.3       1 RES1    0.0000
     16 H7        12.6135    2.8404    3.7361 H         1 RES1    0.0000
     17 H8        11.4461    2.0325    4.4747 H         1 RES1    0.0000
     18 C9        10.7398    3.7000    3.4485 C.3       1 RES1    0.0000
     19 H9        11.1063    4.4907    3.9169 H         1 RES1    0.0000
     20 H10       10.6712    3.9169    2.4852 H         1 RES1    0.0000
     21 C10        9.3563    3.3796    3.9978 C.3       1 RES1    0.0000
     22 H11        9.3457    3.5485    4.9731 H         1 RES1    0.0000
     23 H12        8.6909    3.9800    3.5773 H         1 RES1    0.0000
     24 N1         8.9811    1.9936    3.7450 N.am      1 RES1    0.0000
     25 C11        9.0141    1.3792    2.4104 C.3       1 RES1    0.0000
     26 C12        8.6235    1.1674    4.7515 C.2       1 RES1    0.0000
     27 C13        8.2898   -0.1872    4.1652 C.3       1 RES1    0.0000
     28 H13        7.4293   -0.5222    4.5203 H         1 RES1    0.0000
     29 H14        8.9992   -0.8447    4.3739 H         1 RES1    0.0000
     30 C14        8.1981    0.0544    2.6560 C.3       1 RES1    0.0000
     31 H15        8.6135   -0.7058    2.1566 H         1 RES1    0.0000
     32 O2         8.5932    1.4673    5.9408 O.2       1 RES1    0.0000
     33 C15        6.7962    0.3472    2.1096 C.3       1 RES1    0.0000
     34 H16        6.2597    0.8274    2.8027 H         1 RES1    0.0000
     35 C16        7.0378    1.2766    0.9104 C.3       1 RES1    0.0000
     36 H17        7.3743    0.7299    0.1436 H         1 RES1    0.0000
     37 C17        8.1696    2.2004    1.3931 C.3       1 RES1    0.0000
     38 H18        7.7949    3.0068    1.8280 H         1 RES1    0.0000
     39 H19        8.7312    2.4858    0.6296 H         1 RES1    0.0000
     40 C18        6.0397   -0.8952    1.6471 C.3       1 RES1    0.0000
     41 H20        5.1618   -0.6289    1.2757 H         1 RES1    0.0000
     42 H21        6.5523   -1.3462    0.9306 H         1 RES1    0.0000
     43 N2         5.8333   -1.8414    2.7844 N.pl3     1 RES1    0.0000
     44 O3         6.4331   -2.9046    2.7794 O.2       1 RES1    0.0000
     45 O4         5.1052   -1.4702    3.6973 O.2       1 RES1    0.0000
     46 C19        5.7937    2.0373    0.4622 C.3       1 RES1    0.0000
     47 H22        5.4231    2.5328    1.2219 H         1 RES1    0.0000
     48 H23        5.1259    1.4024    0.1284 H         1 RES1    0.0000
     49 H24        6.0343    2.6648   -0.2513 H         1 RES1    0.0000
@<TRIPOS>BOND
     1    1    2 1
     2    3    1 1
     3    4    1 1
     4    5    1 1
     5    6    5 1
     6    7    6 ar
     7    8    7 1
     8    9    7 ar
     9   10    9 ar
    10   11   10 ar
    11   12   11 1
    12   13    6 ar
    13   14   13 1
    14   15    9 1
    15   16   15 1
    16   17   15 1
    17   18   15 1
    18   19   18 1
    19   20   18 1
    20   21   18 1
    21   22   21 1
    22   23   21 1
    23   24   21 1
    24   25   10 1
    25   26   24 1
    26   27   26 1
    27   28   27 1
    28   29   27 1
    29   30   25 1
    30   31   30 1
    31   32   26 2
    32   33   30 1
    33   34   33 1
    34   35   33 1
    35   36   35 1
    36   37   25 1
    37   38   37 1
    38   39   37 1
    39   40   33 1
    40   41   40 1
    41   42   40 1
    42   43   40 1
    43   44   43 2
    44   45   43 2
    45   46   35 1
    46   47   46 1
    47   48   46 1
    48   49   46 1
    49   11   13 ar
    50   24   25 1
    51   27   30 1
    52   35   37 1
@<TRIPOS>SUBSTRUCTURE
     1 RES1 1

@<TRIPOS>CRYSIN
  11.2140   11.4764   13.8066  90.0000  90.0000  90.0000  19 1

