# MOL2 file generated by ConQuest
# Please check atom types

@<TRIPOS>MOLECULE
ZEZDAL
    29    30     1
SMALL
NO_CHARGES
****
Generated from CSD

@<TRIPOS>ATOM
      1 N1        10.4618    1.7478    1.1632 N.pl3     1 RES1    0.0000
      2 C1        11.1507    0.9049    3.3702 C.ar      1 RES1    0.0000
      3 C2        10.2344    0.0455    3.9365 C.ar      1 RES1    0.0000
      4 H1         9.7469   -0.5303    3.3930 H         1 RES1    0.0000
      5 C3        10.0337    0.0296    5.3020 C.ar      1 RES1    0.0000
      6 O1        10.6536    0.7541    7.5108 O.3       1 RES1    0.0000
      7 C4        11.8837    1.7210    4.1994 C.ar      1 RES1    0.0000
      8 H2        12.5128    2.3056    3.8419 H         1 RES1    0.0000
      9 N2        10.5176    3.0696    1.3069 N.2       1 RES1    0.0000
     10 N3         9.0764   -0.9548    5.8252 N.pl3     1 RES1    0.0000
     11 C5        11.6820    1.6683    5.5646 C.ar      1 RES1    0.0000
     12 C6        11.4068    0.8989    1.8945 C.3       1 RES1    0.0000
     13 H3        12.3090    1.2098    1.7276 H         1 RES1    0.0000
     14 H4        11.3379   -0.0104    1.5643 H         1 RES1    0.0000
     15 C7        10.7434    0.8418    6.1619 C.ar      1 RES1    0.0000
     16 N4         9.6027    3.5692    0.5093 N.2       1 RES1    0.0000
     17 C8         9.5312    1.3969    0.2872 C.2       1 RES1    0.0000
     18 H5         9.2976    0.5369    0.0214 H         1 RES1    0.0000
     19 O2         8.9642   -1.9952    5.2259 O.2       1 RES1    0.0000
     20 N5        12.5240    2.4795    6.4268 N.pl3     1 RES1    0.0000
     21 O3         8.4397   -0.6795    6.8112 O.2       1 RES1    0.0000
     22 C9         8.9947    2.5612   -0.1351 C.2       1 RES1    0.0000
     23 H6         8.3182    2.6500   -0.7657 H         1 RES1    0.0000
     24 C10        9.7219    1.6508    8.1618 C.3       1 RES1    0.0000
     25 H7        10.0460    2.5524    8.0976 H         1 RES1    0.0000
     26 H8         9.6359    1.4073    9.0868 H         1 RES1    0.0000
     27 H9         8.8650    1.5877    7.7342 H         1 RES1    0.0000
     28 O4        13.6393    2.0802    6.6207 O.2       1 RES1    0.0000
     29 O5        12.2127    3.4282    6.8364 O.2       1 RES1    0.0000
@<TRIPOS>BOND
     1    1    9 1
     2    2    3 ar
     3    3    4 1
     4    5    3 ar
     5    6   15 1
     6    7    2 ar
     7    8    7 1
     8    9   16 2
     9   10    5 1
    10   11    7 ar
    11   12    1 1
    12   13   12 1
    13   14   12 1
    14   15    5 ar
    15   16   22 1
    16   17    1 1
    17   18   17 1
    18   19   10 2
    19   20   11 1
    20   21   10 2
    21   22   17 2
    22   23   22 1
    23   24    6 1
    24   25   24 1
    25   26   24 1
    26   27   24 1
    27   28   20 2
    28   29   20 2
    29    2   12 1
    30   11   15 ar
@<TRIPOS>SUBSTRUCTURE
     1 RES1 1

@<TRIPOS>CRYSIN
  11.6392    5.4843   19.6637  90.0000  98.7900  90.0000 231 1

