# MOL2 file generated by ConQuest
# Please check atom types

@<TRIPOS>MOLECULE
ZEZTIH
    65    70     1
SMALL
NO_CHARGES
****
Generated from CSD

@<TRIPOS>ATOM
      1 C1         3.1796    4.5223    7.1112 C.3       1 RES1    0.0000
      2 N1         2.2911    5.2451    8.0600 N.am      1 RES1    0.0000
      3 C2         2.1542    4.6665    9.4054 C.3       1 RES1    0.0000
      4 C3         3.4962    4.6911   10.1333 C.3       1 RES1    0.0000
      5 C4         4.4792    3.9990    9.2488 C.2       1 RES1    0.0000
      6 C5         5.6254    3.1873    9.5677 C.ar      1 RES1    0.0000
      7 C6         6.2789    2.8447   10.7576 C.ar      1 RES1    0.0000
      8 C7         7.3166    1.9353   10.7159 C.ar      1 RES1    0.0000
      9 C8         7.7265    1.3745    9.4989 C.ar      1 RES1    0.0000
     10 C9         7.1144    1.7052    8.3079 C.ar      1 RES1    0.0000
     11 C10        6.0563    2.6107    8.3575 C.ar      1 RES1    0.0000
     12 N2         5.2388    3.0767    7.3456 N.pl3     1 RES1    0.0000
     13 C11        4.2835    3.8894    7.9056 C.2       1 RES1    0.0000
     14 C12        2.3504    3.5339    6.2966 C.ar      1 RES1    0.0000
     15 C13        1.9941    2.2957    6.8284 C.ar      1 RES1    0.0000
     16 C14        1.1240    1.4643    6.1433 C.ar      1 RES1    0.0000
     17 C15        0.6699    1.8751    4.9084 C.ar      1 RES1    0.0000
     18 C16        1.0551    3.0600    4.3235 C.ar      1 RES1    0.0000
     19 C17        1.9011    3.8973    5.0379 C.ar      1 RES1    0.0000
     20 N3        -0.2847    1.0052    4.1872 N.pl3     1 RES1    0.0000
     21 O1        -0.8281    0.1007    4.7923 O.2       1 RES1    0.0000
     22 O2        -0.4916    1.2619    3.0164 O.2       1 RES1    0.0000
     23 C18        1.5759    6.2818    7.5676 C.2       1 RES1    0.0000
     24 C19        0.6069    7.0283    8.5164 C.3       1 RES1    0.0000
     25 C20       -0.3377    7.9476    7.7152 C.3       1 RES1    0.0000
     26 C21       -1.3360    7.0797    6.9501 C.3       1 RES1    0.0000
     27 C22       -1.0653    8.9300    8.6167 C.3       1 RES1    0.0000
     28 N4         1.4011    7.7323    9.5373 N.am      1 RES1    0.0000
     29 O3         1.6946    6.6274    6.3991 O.2       1 RES1    0.0000
     30 C23        2.3767    8.7079    9.2465 C.2       1 RES1    0.0000
     31 C24        3.0462    8.9942   10.5412 C.ar      1 RES1    0.0000
     32 C25        4.1119    9.8286   10.8128 C.ar      1 RES1    0.0000
     33 C26        4.5524    9.8661   12.1300 C.ar      1 RES1    0.0000
     34 C27        3.9501    9.1147   13.1284 C.ar      1 RES1    0.0000
     35 C28        2.8659    8.2932   12.8422 C.ar      1 RES1    0.0000
     36 C29        2.4324    8.2497   11.5306 C.ar      1 RES1    0.0000
     37 C30        1.3468    7.4519   10.9097 C.2       1 RES1    0.0000
     38 O4         2.5770    9.1660    8.1524 O.2       1 RES1    0.0000
     39 O5         0.5587    6.7025   11.4348 O.2       1 RES1    0.0000
     40 H1         3.5182    5.2332    6.4678 H         1 RES1    0.0000
     41 H2         1.4248    5.1345    9.9046 H         1 RES1    0.0000
     42 H3         1.8803    3.7719    9.2736 H         1 RES1    0.0000
     43 H4         3.3676    4.2261   11.0201 H         1 RES1    0.0000
     44 H5         3.7390    5.6282   10.3891 H         1 RES1    0.0000
     45 H6         5.9599    3.2387   11.6061 H         1 RES1    0.0000
     46 H7         7.7446    1.6885   11.5385 H         1 RES1    0.0000
     47 H8         8.4380    0.7702    9.4877 H         1 RES1    0.0000
     48 H9         7.4309    1.3330    7.5045 H         1 RES1    0.0000
     49 H10        5.2687    2.8338    6.5016 H         1 RES1    0.0000
     50 H11        2.3650    2.0439    7.6285 H         1 RES1    0.0000
     51 H12        0.8770    0.6221    6.4904 H         1 RES1    0.0000
     52 H13        0.6937    3.3572    3.4367 H         1 RES1    0.0000
     53 H14        2.2127    4.7889    4.6650 H         1 RES1    0.0000
     54 H15        0.0384    6.3885    8.9919 H         1 RES1    0.0000
     55 H16        0.2258    8.4916    7.0763 H         1 RES1    0.0000
     56 H17       -1.9031    6.6650    7.5834 H         1 RES1    0.0000
     57 H18       -0.8513    6.3292    6.3552 H         1 RES1    0.0000
     58 H19       -1.8004    7.5536    6.3552 H         1 RES1    0.0000
     59 H20       -1.6154    8.4423    9.3525 H         1 RES1    0.0000
     60 H21       -0.4728    9.4395    9.1384 H         1 RES1    0.0000
     61 H22       -1.7255    9.4593    8.0904 H         1 RES1    0.0000
     62 H23        4.5794   10.3282   10.0736 H         1 RES1    0.0000
     63 H24        5.3278   10.3578   12.3610 H         1 RES1    0.0000
     64 H25        4.3163    9.1433   14.0287 H         1 RES1    0.0000
     65 H26        2.4311    7.7708   13.4991 H         1 RES1    0.0000
@<TRIPOS>BOND
     1    1    2 1
     2    2    3 1
     3    3    4 1
     4    4    5 1
     5    5    6 1
     6    6    7 ar
     7    7    8 ar
     8    8    9 ar
     9    9   10 ar
    10   10   11 ar
    11   11    6 ar
    12   12   11 1
    13   13    1 1
    14   14    1 1
    15   15   14 ar
    16   16   15 ar
    17   17   16 ar
    18   18   17 ar
    19   19   14 ar
    20   20   17 1
    21   21   20 2
    22   22   20 2
    23   23    2 1
    24   24   23 1
    25   25   24 1
    26   26   25 1
    27   27   25 1
    28   28   24 1
    29   29   23 2
    30   30   28 1
    31   31   30 1
    32   32   31 ar
    33   33   32 ar
    34   34   33 ar
    35   35   34 ar
    36   36   31 ar
    37   37   28 1
    38   38   30 2
    39   39   37 2
    40   40    1 1
    41   41    3 1
    42   42    3 1
    43   43    4 1
    44   44    4 1
    45   45    7 1
    46   46    8 1
    47   47    9 1
    48   48   10 1
    49   49   12 1
    50   50   15 1
    51   51   16 1
    52   52   18 1
    53   53   19 1
    54   54   24 1
    55   55   25 1
    56   56   26 1
    57   57   26 1
    58   58   26 1
    59   59   27 1
    60   60   27 1
    61   61   27 1
    62   62   32 1
    63   63   33 1
    64   64   34 1
    65   65   35 1
    66    5   13 2
    67   12   13 1
    68   18   19 ar
    69   35   36 ar
    70   36   37 1
@<TRIPOS>SUBSTRUCTURE
     1 RES1 1

@<TRIPOS>CRYSIN
  12.0130    9.8740   12.3810  90.0000 114.4800  90.0000   4 1

