# MOL2 file generated by ConQuest
# Please check atom types

@<TRIPOS>MOLECULE
ZIBFUO
    58    63     1
SMALL
NO_CHARGES
****
Generated from CSD

@<TRIPOS>ATOM
      1 O1        11.0652    9.8689    3.5603 O.3       1 RES1    0.0000
      2 N1         9.1348    9.2908    4.8267 N.pl3     1 RES1    0.0000
      3 N2        12.4624    9.5210    3.6189 N.3       1 RES1    0.0000
      4 C1        10.3583    8.8334    4.2708 C.3       1 RES1    0.0000
      5 H1        10.2308    8.0160    3.7100 H         1 RES1    0.0000
      6 C2        11.2834    8.5669    5.4726 C.3       1 RES1    0.0000
      7 H2        11.1399    7.6520    5.8479 H         1 RES1    0.0000
      8 C3        10.8326    9.6427    6.4427 C.3       1 RES1    0.0000
      9 H3        11.3010   10.4963    6.2639 H         1 RES1    0.0000
     10 H4        11.0092    9.3692    7.3769 H         1 RES1    0.0000
     11 C4         9.3027    9.7885    6.1878 C.3       1 RES1    0.0000
     12 H5         9.0593   10.7577    6.2133 H         1 RES1    0.0000
     13 C5         8.4730    9.0435    7.2114 C.ar      1 RES1    0.0000
     14 C6         8.1917    7.6892    7.1584 C.ar      1 RES1    0.0000
     15 H6         8.4858    7.1684    6.4194 H         1 RES1    0.0000
     16 C7         7.4660    7.0880    8.2051 C.ar      1 RES1    0.0000
     17 H7         7.2905    6.1540    8.1845 H         1 RES1    0.0000
     18 C8         7.0114    7.8501    9.2533 C.ar      1 RES1    0.0000
     19 H8         6.5085    7.4439    9.9495 H         1 RES1    0.0000
     20 C9         7.2797    9.1873    9.3014 C.ar      1 RES1    0.0000
     21 H9         6.9539    9.7131   10.0226 H         1 RES1    0.0000
     22 C10        8.0231    9.7704    8.3040 C.ar      1 RES1    0.0000
     23 H10        8.2333   10.6943    8.3644 H         1 RES1    0.0000
     24 C11        8.0185    9.6226    4.0253 C.ar      1 RES1    0.0000
     25 C12        6.7904    9.9715    4.6124 C.ar      1 RES1    0.0000
     26 H11        6.7154   10.0056    5.5594 H         1 RES1    0.0000
     27 C13        5.6959   10.2640    3.8322 C.ar      1 RES1    0.0000
     28 H12        4.8716   10.4842    4.2496 H         1 RES1    0.0000
     29 C14        5.7752   10.2429    2.4503 C.ar      1 RES1    0.0000
     30 H13        5.0134   10.4430    1.9187 H         1 RES1    0.0000
     31 C15        6.9918    9.9242    1.8559 C.ar      1 RES1    0.0000
     32 H14        7.0622    9.9121    0.9088 H         1 RES1    0.0000
     33 C16        8.0928    9.6276    2.6197 C.ar      1 RES1    0.0000
     34 H15        8.9163    9.4215    2.1941 H         1 RES1    0.0000
     35 C17       12.6847    8.7117    4.8680 C.3       1 RES1    0.0000
     36 H16       12.9982    7.8028    4.5944 H         1 RES1    0.0000
     37 C18       13.7419    9.3190    5.7687 C.ar      1 RES1    0.0000
     38 C19       14.5149    8.4865    6.5686 C.ar      1 RES1    0.0000
     39 H17       14.3608    7.5485    6.5581 H         1 RES1    0.0000
     40 C20       15.5071    9.0103    7.3799 C.ar      1 RES1    0.0000
     41 H18       16.0266    8.4302    7.9240 H         1 RES1    0.0000
     42 C21       15.7452   10.3595    7.4020 C.ar      1 RES1    0.0000
     43 H19       16.4243   10.7134    7.9653 H         1 RES1    0.0000
     44 C22       14.9931   11.2071    6.6023 C.ar      1 RES1    0.0000
     45 H20       15.1616   12.1421    6.6105 H         1 RES1    0.0000
     46 C23       13.9924   10.6863    5.7872 C.ar      1 RES1    0.0000
     47 H21       13.4779   11.2684    5.2408 H         1 RES1    0.0000
     48 C24       12.9281    8.9369    2.4280 C.ar      1 RES1    0.0000
     49 C25       12.1546    8.8545    1.2758 C.ar      1 RES1    0.0000
     50 H22       11.2336    9.0897    1.3004 H         1 RES1    0.0000
     51 C26       12.7251    8.4312    0.1036 C.ar      1 RES1    0.0000
     52 H23       12.1914    8.3759   -0.6802 H         1 RES1    0.0000
     53 C27       14.0661    8.0823    0.0369 C.ar      1 RES1    0.0000
     54 H24       14.4582    7.8109   -0.7851 H         1 RES1    0.0000
     55 C28       14.8221    8.1386    1.1954 C.ar      1 RES1    0.0000
     56 H25       15.7387    7.8883    1.1692 H         1 RES1    0.0000
     57 C29       14.2700    8.5478    2.3750 C.ar      1 RES1    0.0000
     58 H26       14.8006    8.5689    3.1629 H         1 RES1    0.0000
@<TRIPOS>BOND
     1    1    3 1
     2    2    4 1
     3    3   35 1
     4    4    1 1
     5    5    4 1
     6    6    4 1
     7    7    6 1
     8    8    6 1
     9    9    8 1
    10   10    8 1
    11   11    2 1
    12   12   11 1
    13   13   11 1
    14   14   13 ar
    15   15   14 1
    16   16   14 ar
    17   17   16 1
    18   18   16 ar
    19   19   18 1
    20   20   18 ar
    21   21   20 1
    22   22   13 ar
    23   23   22 1
    24   24    2 1
    25   25   24 ar
    26   26   25 1
    27   27   25 ar
    28   28   27 1
    29   29   27 ar
    30   30   29 1
    31   31   29 ar
    32   32   31 1
    33   33   24 ar
    34   34   33 1
    35   35    6 1
    36   36   35 1
    37   37   35 1
    38   38   37 ar
    39   39   38 1
    40   40   38 ar
    41   41   40 1
    42   42   40 ar
    43   43   42 1
    44   44   42 ar
    45   45   44 1
    46   46   37 ar
    47   47   46 1
    48   48    3 1
    49   49   48 ar
    50   50   49 1
    51   51   49 ar
    52   52   51 1
    53   53   51 ar
    54   54   53 1
    55   55   53 ar
    56   56   55 1
    57   57   48 ar
    58   58   57 1
    59    8   11 1
    60   20   22 ar
    61   31   33 ar
    62   44   46 ar
    63   55   57 ar
@<TRIPOS>SUBSTRUCTURE
     1 RES1 1

@<TRIPOS>CRYSIN
  11.6449   10.0539   19.0510  90.0000 100.4110  90.0000  14 1

