# MOL2 file generated by ConQuest
# Please check atom types

@<TRIPOS>MOLECULE
ZIBPOP
   108   115     1
SMALL
NO_CHARGES
****
Generated from CSD

@<TRIPOS>ATOM
      1 C1         0.9143    8.1113    3.8357 C.3       1 RES1    0.0000
      2 C2         0.0373    9.3431    3.8231 C.3       1 RES1    0.0000
      3 C3        -0.2364    9.6535    5.2882 C.3       1 RES1    0.0000
      4 C4         0.8895    8.9495    6.0553 C.3       1 RES1    0.0000
      5 C5         1.8598    9.8097    6.8225 C.3       1 RES1    0.0000
      6 C6         2.9296    8.9325    7.4764 C.3       1 RES1    0.0000
      7 C7         2.4631    8.2215    8.7403 C.3       1 RES1    0.0000
      8 C8         1.8971    9.2710    9.6772 C.3       1 RES1    0.0000
      9 C9         0.6593    9.8948    8.9541 C.3       1 RES1    0.0000
     10 C10       -0.1617   10.8662    9.8596 C.3       1 RES1    0.0000
     11 C11        0.6220   11.5612   10.9411 C.3       1 RES1    0.0000
     12 C12        0.8210   10.6569   12.1736 C.3       1 RES1    0.0000
     13 C13        1.8411    9.5453   12.0227 C.3       1 RES1    0.0000
     14 C14        1.9095    8.6952   13.2991 C.3       1 RES1    0.0000
     15 C15        2.1770    9.6345   14.5190 C.3       1 RES1    0.0000
     16 C16        1.1196   10.7230   14.5001 C.3       1 RES1    0.0000
     17 C17        1.2005   11.6493   15.7074 C.3       1 RES1    0.0000
     18 C18        1.0014   10.7150   16.8770 C.3       1 RES1    0.0000
     19 C19        2.0277    9.6124   16.8896 C.3       1 RES1    0.0000
     20 C20        1.7603    8.7012   18.1032 C.3       1 RES1    0.0000
     21 C21        0.9081   10.6249   19.2539 C.3       1 RES1    0.0000
     22 C22        0.0809    6.8696    3.9048 C.3       1 RES1    0.0000
     23 C23        0.6282    5.6880    4.5085 C.3       1 RES1    0.0000
     24 C24        0.3856    5.1272    5.8164 C.3       1 RES1    0.0000
     25 C25        1.5550    4.4963    6.5458 C.2       1 RES1    0.0000
     26 C26        1.7665    4.4462    7.7783 C.2       1 RES1    0.0000
     27 C27       -0.7651    5.5978    6.5961 C.3       1 RES1    0.0000
     28 C28        0.0062   11.4059    2.6158 C.2       1 RES1    0.0000
     29 C29        0.7651   12.4975    2.0436 C.ar      1 RES1    0.0000
     30 C30        0.2115   13.3186    1.1256 C.ar      1 RES1    0.0000
     31 C31        0.8957   14.3601    0.5345 C.ar      1 RES1    0.0000
     32 C32        2.1708   14.6004    0.9558 C.ar      1 RES1    0.0000
     33 C33        2.7617   13.8193    1.9053 C.ar      1 RES1    0.0000
     34 C34        2.1148   12.7178    2.4272 C.ar      1 RES1    0.0000
     35 C35        1.9780    8.0112    2.7101 C.3       1 RES1    0.0000
     36 C36        2.5191   10.8852    5.9359 C.3       1 RES1    0.0000
     37 C37       -0.8708   11.9267    8.9667 C.3       1 RES1    0.0000
     38 C38        3.6263   10.1171   14.4687 C.3       1 RES1    0.0000
     39 C39        1.3186   11.5061   20.4423 C.3       1 RES1    0.0000
     40 C40       -0.5785   10.1943   19.3985 C.3       1 RES1    0.0000
     41 N1         2.9732   15.6619    0.3333 N.pl3     1 RES1    0.0000
     42 O1         1.6670    8.2345    5.0480 O.3       1 RES1    0.0000
     43 O2         1.1619   10.5968    7.8235 O.3       1 RES1    0.0000
     44 O3         1.5351    8.6801   10.9216 O.3       1 RES1    0.0000
     45 O4         1.1893   11.4891   13.2746 O.3       1 RES1    0.0000
     46 O5         1.9531    8.8273   15.6942 O.3       1 RES1    0.0000
     47 O6         1.0997   11.4380   18.1182 O.3       1 RES1    0.0000
     48 O7         1.7665    9.5063   19.2570 O.3       1 RES1    0.0000
     49 O8         0.0249    4.4362    4.6217 O.3       1 RES1    0.0000
     50 O9         0.7215   10.4516    3.1874 O.3       1 RES1    0.0000
     51 O10       -1.2253   11.3599    2.6032 O.2       1 RES1    0.0000
     52 O11        2.3760   16.3539   -0.4590 O.2       1 RES1    0.0000
     53 O12        4.1798   15.7821    0.6540 O.2       1 RES1    0.0000
     54 H1        -0.7769    9.1728    3.3138 H         1 RES1    0.0000
     55 H2         0.4298    8.3727    6.7093 H         1 RES1    0.0000
     56 H3         2.5347    9.9960    9.8470 H         1 RES1    0.0000
     57 H4         0.0323    9.1588    8.7655 H         1 RES1    0.0000
     58 H5        -0.7794   10.3425   10.3563 H         1 RES1    0.0000
     59 H6         0.0187   10.1512   12.2930 H         1 RES1    0.0000
     60 H7         2.6777   10.0180   11.9032 H         1 RES1    0.0000
     61 H8         0.2706   10.2924   14.5630 H         1 RES1    0.0000
     62 H9         0.1250   10.3184   16.8015 H         1 RES1    0.0000
     63 H10        2.9103   10.0380   16.9273 H         1 RES1    0.0000
     64 H11        1.4524    6.0224    4.0432 H         1 RES1    0.0000
     65 H12       -0.2196   10.6068    5.4391 H         1 RES1    0.0000
     66 H13       -1.1252    9.3521    5.5460 H         1 RES1    0.0000
     67 H14        3.1112    8.1604    6.8225 H         1 RES1    0.0000
     68 H15        3.7090    9.3461    7.6211 H         1 RES1    0.0000
     69 H16        1.7522    7.5966    8.5391 H         1 RES1    0.0000
     70 H17        3.1678    7.7719    9.1490 H         1 RES1    0.0000
     71 H18        1.4679   11.8165   10.5890 H         1 RES1    0.0000
     72 H19        0.1487   12.3453   11.2115 H         1 RES1    0.0000
     73 H20        1.0649    8.2375   13.3997 H         1 RES1    0.0000
     74 H21        2.5894    8.0332   13.1985 H         1 RES1    0.0000
     75 H22        2.0626   12.0629   15.7514 H         1 RES1    0.0000
     76 H23        0.5349   12.3222   15.6697 H         1 RES1    0.0000
     77 H24        0.9050    8.2786   17.9774 H         1 RES1    0.0000
     78 H25        2.4252    8.0192   18.1535 H         1 RES1    0.0000
     79 H26       -0.7532    6.9988    4.4393 H         1 RES1    0.0000
     80 H27       -0.2619    6.5692    3.0308 H         1 RES1    0.0000
     81 H28        2.2747    4.0507    6.0302 H         1 RES1    0.0000
     82 H29        2.2218    3.8103    8.4196 H         1 RES1    0.0000
     83 H30        1.4586    5.2674    8.4636 H         1 RES1    0.0000
     84 H31       -0.7308   13.2285    0.9306 H         1 RES1    0.0000
     85 H32        0.4901   14.8828   -0.1698 H         1 RES1    0.0000
     86 H33        3.6375   14.0336    2.2511 H         1 RES1    0.0000
     87 H34        2.5533   12.1530    3.0560 H         1 RES1    0.0000
     88 H35        2.3928    7.1570    2.6535 H         1 RES1    0.0000
     89 H36        2.6199   10.5858    5.0304 H         1 RES1    0.0000
     90 H37       -0.2899   12.6377    8.7592 H         1 RES1    0.0000
     91 H38        3.7227   10.6819   13.6890 H         1 RES1    0.0000
     92 H39        1.3068   12.3793   20.2662 H         1 RES1    0.0000
     93 H40       -0.6761    9.5163   20.0399 H         1 RES1    0.0000
     94 H41        1.5687    8.1925    1.8487 H         1 RES1    0.0000
     95 H42        2.6796    8.6731    2.8170 H         1 RES1    0.0000
     96 H43        1.9910   11.6873    5.9233 H         1 RES1    0.0000
     97 H44        3.3961   11.1236    6.2566 H         1 RES1    0.0000
     98 H45       -1.1557   11.5051    8.1492 H         1 RES1    0.0000
     99 H46       -1.6477   12.2651    9.4068 H         1 RES1    0.0000
    100 H47        3.8060   10.6509   15.2358 H         1 RES1    0.0000
    101 H48        4.2072    9.3991   14.4121 H         1 RES1    0.0000
    102 H49        0.7719   11.2778   21.2157 H         1 RES1    0.0000
    103 H50        2.2348   11.2167   20.7064 H         1 RES1    0.0000
    104 H51       -1.1152   10.9583   19.6752 H         1 RES1    0.0000
    105 H52       -0.9131    9.9008   18.5559 H         1 RES1    0.0000
    106 H53       -1.6247    5.4416    6.1685 H         1 RES1    0.0000
    107 H54       -0.8235    5.1662    7.4639 H         1 RES1    0.0000
    108 H55       -0.7408    6.5562    6.7848 H         1 RES1    0.0000
@<TRIPOS>BOND
     1    1    2 1
     2    2    3 1
     3    3    4 1
     4    4    5 1
     5    5    6 1
     6    6    7 1
     7    7    8 1
     8    8    9 1
     9    9   10 1
    10   10   11 1
    11   11   12 1
    12   12   13 1
    13   13   14 1
    14   14   15 1
    15   15   16 1
    16   16   17 1
    17   17   18 1
    18   18   19 1
    19   19   20 1
    20   20   48 1
    21   21   39 1
    22   22    1 1
    23   23   22 1
    24   24   23 1
    25   25   24 1
    26   26   25 2
    27   27   24 1
    28   28   29 1
    29   29   30 ar
    30   30   31 ar
    31   31   32 ar
    32   32   33 ar
    33   33   34 ar
    34   34   29 ar
    35   35    1 1
    36   36    5 1
    37   37   10 1
    38   38   15 1
    39   39   92 1
    40   40   21 1
    41   41   32 1
    42   42    1 1
    43   43    5 1
    44   44    8 1
    45   45   12 1
    46   46   15 1
    47   47   18 1
    48   48   21 1
    49   49   23 1
    50   50    2 1
    51   51   28 2
    52   52   41 2
    53   53   41 2
    54   54    2 1
    55   55    4 1
    56   56    8 1
    57   57    9 1
    58   58   10 1
    59   59   12 1
    60   60   13 1
    61   61   16 1
    62   62   18 1
    63   63   19 1
    64   64   23 1
    65   65    3 1
    66   66    3 1
    67   67    6 1
    68   68    6 1
    69   69    7 1
    70   70    7 1
    71   71   11 1
    72   72   11 1
    73   73   14 1
    74   74   14 1
    75   75   17 1
    76   76   17 1
    77   77   20 1
    78   78   20 1
    79   79   22 1
    80   80   22 1
    81   81   25 1
    82   82   26 1
    83   83   26 1
    84   84   30 1
    85   85   31 1
    86   86   33 1
    87   87   34 1
    88   88   35 1
    89   89   36 1
    90   90   37 1
    91   91   38 1
    92   93   40 1
    93   94   35 1
    94   95   35 1
    95   96   36 1
    96   97   36 1
    97   98   37 1
    98   99   37 1
    99  100   38 1
   100  101   38 1
   101  102   39 1
   102  103   39 1
   103  104   40 1
   104  105   40 1
   105  106   27 1
   106  107   27 1
   107  108   27 1
   108    4   42 1
   109    9   43 1
   110   13   44 1
   111   16   45 1
   112   19   46 1
   113   21   47 1
   114   24   49 1
   115   28   50 1
@<TRIPOS>SUBSTRUCTURE
     1 RES1 1

@<TRIPOS>CRYSIN
   6.2200   10.0140   62.8800  90.0000  90.0000  90.0000  19 1

