# MOL2 file generated by ConQuest
# Please check atom types

@<TRIPOS>MOLECULE
ZIBVAH
    44    44     2
SMALL
NO_CHARGES
****
Generated from CSD

@<TRIPOS>ATOM
      1 C1         9.8770    3.6285    0.6319 C.3       1 RES1    0.0000
      2 C2         8.2146    2.0072    0.9475 C.3       1 RES1    0.0000
      3 C3         7.9054    2.0100   -0.5578 C.3       1 RES1    0.0000
      4 C4         8.2683    3.3923   -1.0909 C.3       1 RES1    0.0000
      5 C5        11.3349    3.9196    0.8641 C.ar      1 RES1    0.0000
      6 C6        11.7349    5.1757    1.2639 C.ar      1 RES1    0.0000
      7 C7        13.0779    5.4537    1.4638 C.ar      1 RES1    0.0000
      8 C8        13.9917    4.4497    1.2393 C.ar      1 RES1    0.0000
      9 C9        13.6232    3.1992    0.8163 C.ar      1 RES1    0.0000
     10 C10       12.2814    2.9341    0.6223 C.ar      1 RES1    0.0000
     11 C11        7.9513    0.6850    1.6348 C.ar      1 RES1    0.0000
     12 C12        8.9646   -0.1183    2.0897 C.ar      1 RES1    0.0000
     13 C13        8.6685   -1.3459    2.7018 C.ar      1 RES1    0.0000
     14 C14        7.3703   -1.7470    2.8392 C.ar      1 RES1    0.0000
     15 C15        6.3530   -0.9398    2.3859 C.ar      1 RES1    0.0000
     16 C16        6.6338    0.2706    1.7974 C.ar      1 RES1    0.0000
     17 C17        8.5949    0.8711   -1.2888 C.3       1 RES1    0.0000
     18 C18        8.1532    3.5540   -2.5906 C.3       1 RES1    0.0000
     19 N1        15.4132    4.7327    1.4765 N.pl3     1 RES1    0.0000
     20 O1         9.5923    2.3514    1.1492 O.3       1 RES1    0.0000
     21 O2         9.6520    3.6836   -0.7606 O.3       1 RES1    0.0000
     22 O3        16.2639    3.8246    1.3053 O.2       1 RES1    0.0000
     23 O4        15.7117    5.8394    1.9649 O.2       1 RES1    0.0000
     24 H1         9.2803    4.3098    1.0633 H         1 RES1    0.0000
     25 H2         7.6425    2.6866    1.3694 H         1 RES1    0.0000
     26 H3         6.9655    1.8978   -0.6540 H         1 RES1    0.0000
     27 H4         7.6744    4.1072   -0.5920 H         1 RES1    0.0000
     28 H5        11.0486    5.8655    1.4162 H         1 RES1    0.0000
     29 H6        13.3945    6.3079    1.7069 H         1 RES1    0.0000
     30 H7        14.2513    2.5667    0.6666 H         1 RES1    0.0000
     31 H8        12.0033    2.0264    0.2636 H         1 RES1    0.0000
     32 H9         9.8704    0.1743    1.9649 H         1 RES1    0.0000
     33 H10        9.3788   -1.8346    2.9899 H         1 RES1    0.0000
     34 H11        7.1682   -2.6604    3.1684 H         1 RES1    0.0000
     35 H12        5.4524   -1.1526    2.4021 H         1 RES1    0.0000
     36 H13        5.8048    0.8890    1.4399 H         1 RES1    0.0000
     37 H14        8.2156    0.0414   -0.9078 H         1 RES1    0.0000
     38 H15        9.5790    0.9500   -1.3318 H         1 RES1    0.0000
     39 H16        8.4025    0.8803   -2.2201 H         1 RES1    0.0000
     40 H17        7.4123    3.2770   -2.8400 H         1 RES1    0.0000
     41 H18        8.3155    4.4711   -2.8958 H         1 RES1    0.0000
     42 H19        8.8712    2.9676   -3.0331 H         1 RES1    0.0000
     43 O5        16.1581    3.8209    1.5012 Du        2 SUP2    0.0000
     44 O6        15.7528    5.9004    1.4789 Du        2 SUP2    0.0000
@<TRIPOS>BOND
     1    1    5 1
     2    2    3 1
     3    3    4 1
     4    4   18 1
     5    5    6 ar
     6    6    7 ar
     7    7    8 ar
     8    8    9 ar
     9    9   10 ar
    10   10    5 ar
    11   11    2 1
    12   12   11 ar
    13   13   12 ar
    14   14   13 ar
    15   15   14 ar
    16   16   11 ar
    17   17    3 1
    18   18   40 1
    19   19    8 1
    20   20    1 1
    21   21    1 1
    22   22   19 2
    23   23   19 2
    24   24    1 1
    25   25    2 1
    26   26    3 1
    27   27    4 1
    28   28    6 1
    29   29    7 1
    30   30    9 1
    31   31   10 1
    32   32   12 1
    33   33   13 1
    34   34   14 1
    35   35   15 1
    36   36   16 1
    37   37   17 1
    38   38   17 1
    39   39   17 1
    40   41   18 1
    41   42   18 1
    42    2   20 1
    43    4   21 1
    44   15   16 ar
@<TRIPOS>SUBSTRUCTURE
     1 RES1 1
     2 SUP2 43

@<TRIPOS>CRYSIN
  10.8012   21.7888    6.9963  90.0000  94.7060  90.0000  14 1

