# MOL2 file generated by ConQuest
# Please check atom types

@<TRIPOS>MOLECULE
ZIBZUF
    35    36     1
SMALL
NO_CHARGES
****
Generated from CSD

@<TRIPOS>ATOM
      1 O1         0.7228   19.1805    3.5255 O.3       1 RES1    0.0000
      2 N1         0.7472   17.9218    2.8535 N.2       1 RES1    0.0000
      3 C1         2.4366   20.0634    2.0624 C.2       1 RES1    0.0000
      4 C2        -0.6719   16.1560    2.1395 C.ar      1 RES1    0.0000
      5 O2         3.7648   19.9758    1.9185 O.3       1 RES1    0.0000
      6 C3         2.0440   19.7003    3.4800 C.3       1 RES1    0.0000
      7 C4         2.0812   20.9370    4.3584 C.ar      1 RES1    0.0000
      8 O3         1.6989   20.4298    1.1957 O.2       1 RES1    0.0000
      9 C5         0.0949   14.0425    1.3110 C.ar      1 RES1    0.0000
     10 C6        -0.4340   17.4678    2.7661 C.2       1 RES1    0.0000
     11 C7         1.0330   21.8419    4.3636 C.ar      1 RES1    0.0000
     12 C8         0.3522   15.2574    1.9265 C.ar      1 RES1    0.0000
     13 C9         3.1951   21.1937    5.1296 C.ar      1 RES1    0.0000
     14 C10        3.2510   22.3334    5.9207 C.ar      1 RES1    0.0000
     15 C11       -2.2124   14.6030    1.1619 C.ar      1 RES1    0.0000
     16 C12       -1.9597   15.8209    1.7848 C.ar      1 RES1    0.0000
     17 C13        1.0954   22.9784    5.1568 C.ar      1 RES1    0.0000
     18 C14       -1.1827   13.7169    0.9328 C.ar      1 RES1    0.0000
     19 C15        2.1991   23.2195    5.9162 C.ar      1 RES1    0.0000
     20 C16        4.3326   20.3578    0.6471 C.3       1 RES1    0.0000
     21 H1         2.7045   18.9394    3.8009 H         1 RES1    0.0000
     22 H2        -1.2810   18.0126    3.1032 H         1 RES1    0.0000
     23 H3         1.2323   15.4703    2.1645 H         1 RES1    0.0000
     24 H4        -2.7646   16.4471    2.0286 H         1 RES1    0.0000
     25 H5         3.9492   20.5988    5.1113 H         1 RES1    0.0000
     26 H6         0.8456   13.3788    1.1965 H         1 RES1    0.0000
     27 H7        -1.3649   12.8465    0.5156 H         1 RES1    0.0000
     28 H8         0.2413   21.6728    3.9243 H         1 RES1    0.0000
     29 H9        -3.1678   14.2523    0.9849 H         1 RES1    0.0000
     30 H10        2.2921   24.0304    6.4899 H         1 RES1    0.0000
     31 H11        4.1307   22.5056    6.3966 H         1 RES1    0.0000
     32 H12        0.2689   23.5357    5.2119 H         1 RES1    0.0000
     33 H13        4.0231   21.3315    0.4466 H         1 RES1    0.0000
     34 H14        3.9306   19.9100   -0.1704 H         1 RES1    0.0000
     35 H15        5.3675   20.2012    0.7514 H         1 RES1    0.0000
@<TRIPOS>BOND
     1    1    2 1
     2    2   10 2
     3    3    5 1
     4    4   10 1
     5    5   20 1
     6    6    1 1
     7    7    6 1
     8    8    3 2
     9    9   12 ar
    10   10   22 1
    11   11    7 ar
    12   12    4 ar
    13   13    7 ar
    14   14   13 ar
    15   15   16 ar
    16   16    4 ar
    17   17   11 ar
    18   18    9 ar
    19   19   14 ar
    20   20   33 1
    21   21    6 1
    22   23   12 1
    23   24   16 1
    24   25   13 1
    25   26    9 1
    26   27   18 1
    27   28   11 1
    28   29   15 1
    29   30   19 1
    30   31   14 1
    31   32   17 1
    32   34   20 1
    33   35   20 1
    34    3    6 1
    35   15   18 ar
    36   17   19 ar
@<TRIPOS>SUBSTRUCTURE
     1 RES1 1

@<TRIPOS>CRYSIN
   6.2400   31.3100    8.0780  90.0000 114.6000  90.0000  14 1

