# MOL2 file generated by ConQuest
# Please check atom types

@<TRIPOS>MOLECULE
ZICBAO
    25    25     1
SMALL
NO_CHARGES
****
Generated from CSD

@<TRIPOS>ATOM
      1 C1        -0.0972    1.1498   10.2592 C.2       1 RES1    0.0000
      2 C2        -1.2945    2.0146   10.5090 C.3       1 RES1    0.0000
      3 C3        -2.1219    1.4514   11.6831 C.3       1 RES1    0.0000
      4 C4        -2.4590    2.9099    7.4085 C.2       1 RES1    0.0000
      5 C5        -2.2010    3.8100    6.2890 C.ar      1 RES1    0.0000
      6 C6        -1.3841    4.9068    6.3800 C.ar      1 RES1    0.0000
      7 C7        -1.1633    5.7244    5.2889 C.ar      1 RES1    0.0000
      8 C8        -1.8125    5.4617    4.0885 C.ar      1 RES1    0.0000
      9 C9        -2.6248    4.3837    3.9945 C.ar      1 RES1    0.0000
     10 C10       -2.8666    3.5555    5.0836 C.ar      1 RES1    0.0000
     11 N1        -1.7150    2.9641    8.4400 N.2       1 RES1    0.0000
     12 O1         0.8233    1.2017   11.1481 O.3       1 RES1    0.0000
     13 O2        -0.0288    0.3841    9.2702 O.2       1 RES1    0.0000
     14 O3        -2.1961    2.0134    9.3936 O.3       1 RES1    0.0000
     15 H1         1.7907    0.4288   11.0895 H         1 RES1    0.0000
     16 H2        -0.9780    3.0042   10.7032 H         1 RES1    0.0000
     17 H3        -1.4753    1.4173   12.5083 H         1 RES1    0.0000
     18 H4        -2.4060    0.4229   11.5304 H         1 RES1    0.0000
     19 H5        -2.8595    2.1830   11.8803 H         1 RES1    0.0000
     20 H6        -3.1165    2.1489    7.3852 H         1 RES1    0.0000
     21 H7        -0.9230    5.0976    7.2548 H         1 RES1    0.0000
     22 H8        -0.6428    6.6103    5.4183 H         1 RES1    0.0000
     23 H9        -1.6909    6.1909    3.2866 H         1 RES1    0.0000
     24 H10       -3.2487    4.1905    3.1845 H         1 RES1    0.0000
     25 H11       -3.3647    2.7556    5.0007 H         1 RES1    0.0000
@<TRIPOS>BOND
     1    1    2 1
     2    2    3 1
     3    3   17 1
     4    4    5 1
     5    5    6 ar
     6    6    7 ar
     7    7    8 ar
     8    8    9 ar
     9    9   10 ar
    10   10    5 ar
    11   11    4 2
    12   12    1 1
    13   13    1 2
    14   14    2 1
    15   15   12 1
    16   16    2 1
    17   18    3 1
    18   19    3 1
    19   20    4 1
    20   21    6 1
    21   22    7 1
    22   23    8 1
    23   24    9 1
    24   25   10 1
    25   11   14 1
@<TRIPOS>SUBSTRUCTURE
     1 RES1 1

@<TRIPOS>CRYSIN
   8.2700   11.7810   12.1980  90.0000 124.0000  90.0000  14 2

