# MOL2 file generated by ConQuest
# Please check atom types

@<TRIPOS>MOLECULE
ZICYIT
    47    52     1
SMALL
NO_CHARGES
****
Generated from CSD

@<TRIPOS>ATOM
      1 O1        -1.0965    0.9376   10.3259 O.3       1 RES1    0.0000
      2 N1         0.0064    1.7985   10.7419 N.3       1 RES1    0.0000
      3 C1        -0.0940    0.6202   13.0102 C.ar      1 RES1    0.0000
      4 C2        -0.0492   -0.6691   12.4803 C.ar      1 RES1    0.0000
      5 C3        -0.0117   -1.7340   13.3948 C.ar      1 RES1    0.0000
      6 C4        -0.0155   -1.5398   14.7435 C.ar      1 RES1    0.0000
      7 C5        -0.0612   -0.2530   15.2850 C.ar      1 RES1    0.0000
      8 C6        -0.1046    0.8127   14.3737 C.ar      1 RES1    0.0000
      9 C7        -0.1176    2.2840   14.7848 C.3       1 RES1    0.0000
     10 C8         1.1139    2.9025   14.1047 C.ar      1 RES1    0.0000
     11 C9         2.1246    3.6043   14.7353 C.ar      1 RES1    0.0000
     12 C10        3.1742    4.1330   13.9627 C.ar      1 RES1    0.0000
     13 C11        3.1826    3.9584   12.6090 C.ar      1 RES1    0.0000
     14 C12        2.1593    3.2428   11.9437 C.ar      1 RES1    0.0000
     15 C13        1.1295    2.7214   12.7130 C.ar      1 RES1    0.0000
     16 C14       -0.0963    1.9176   12.1963 C.3       1 RES1    0.0000
     17 C15       -1.2921    2.7418   12.6717 C.ar      1 RES1    0.0000
     18 C16       -2.2593    3.3374   11.8959 C.ar      1 RES1    0.0000
     19 C17       -3.2691    4.0596   12.5182 C.ar      1 RES1    0.0000
     20 C18       -3.3199    4.1918   13.8802 C.ar      1 RES1    0.0000
     21 C19       -2.3387    3.6157   14.6725 C.ar      1 RES1    0.0000
     22 C20       -1.3219    2.9009   14.0667 C.ar      1 RES1    0.0000
     23 C21       -1.6472    1.3187    9.1241 C.ar      1 RES1    0.0000
     24 C22       -1.2166    2.3280    8.3103 C.ar      1 RES1    0.0000
     25 C23       -1.8826    2.6234    7.1580 C.ar      1 RES1    0.0000
     26 C24       -3.0477    1.9127    6.8245 C.ar      1 RES1    0.0000
     27 C25       -3.4694    0.8544    7.6318 C.ar      1 RES1    0.0000
     28 C26       -2.7896    0.5581    8.7857 C.ar      1 RES1    0.0000
     29 H1        -0.0116   -0.9221   11.3907 H         1 RES1    0.0000
     30 H2        -0.0119   -2.4970   12.9755 H         1 RES1    0.0000
     31 H3         0.0181   -2.3174   15.5838 H         1 RES1    0.0000
     32 H4        -0.0221   -0.0979   16.4422 H         1 RES1    0.0000
     33 H5        -0.0285    2.4317   15.9965 H         1 RES1    0.0000
     34 H6         2.0574    3.6965   15.8479 H         1 RES1    0.0000
     35 H7         4.1221    4.5533   14.5603 H         1 RES1    0.0000
     36 H8         3.9986    4.2758   11.9025 H         1 RES1    0.0000
     37 H9         2.2627    3.0682   10.7964 H         1 RES1    0.0000
     38 H10       -2.2004    3.1742   10.7304 H         1 RES1    0.0000
     39 H11       -3.9789    4.4146   11.9190 H         1 RES1    0.0000
     40 H12       -3.8171    4.6512   14.4447 H         1 RES1    0.0000
     41 H13       -2.4410    3.6394   15.6994 H         1 RES1    0.0000
     42 H14       -0.2434    2.6928    8.5183 H         1 RES1    0.0000
     43 H15       -1.2266    3.1824    6.5208 H         1 RES1    0.0000
     44 H16       -3.3927    2.1134    5.9265 H         1 RES1    0.0000
     45 H17       -4.6293    0.3672    7.4782 H         1 RES1    0.0000
     46 H18       -3.0754   -0.1550    9.4757 H         1 RES1    0.0000
     47 H19        0.6341    1.1016   10.2681 H         1 RES1    0.0000
@<TRIPOS>BOND
     1    1    2 1
     2    2   16 1
     3    3    4 ar
     4    4    5 ar
     5    5    6 ar
     6    6    7 ar
     7    7    8 ar
     8    8    3 ar
     9    9    8 1
    10   10    9 1
    11   11   10 ar
    12   12   11 ar
    13   13   12 ar
    14   14   13 ar
    15   15   10 ar
    16   16    3 1
    17   17   16 1
    18   18   17 ar
    19   19   18 ar
    20   20   19 ar
    21   21   20 ar
    22   22    9 1
    23   23    1 1
    24   24   23 ar
    25   25   24 ar
    26   26   25 ar
    27   27   26 ar
    28   28   23 ar
    29   29    4 1
    30   30    5 1
    31   31    6 1
    32   32    7 1
    33   33    9 1
    34   34   11 1
    35   35   12 1
    36   36   13 1
    37   37   14 1
    38   38   18 1
    39   39   19 1
    40   40   20 1
    41   41   21 1
    42   42   24 1
    43   43   25 1
    44   44   26 1
    45   45   27 1
    46   46   28 1
    47   47    2 1
    48   14   15 ar
    49   15   16 1
    50   17   22 ar
    51   21   22 ar
    52   27   28 ar
@<TRIPOS>SUBSTRUCTURE
     1 RES1 1

@<TRIPOS>CRYSIN
  13.9200    8.1600   16.5600  90.0000  94.5300  90.0000  14 2

