# MOL2 file generated by ConQuest
# Please check atom types

@<TRIPOS>MOLECULE
ZIFHUU
    92    95     1
SMALL
NO_CHARGES
****
Generated from CSD

@<TRIPOS>ATOM
      1 O1        -0.3239    5.8050    4.3623 O.2       1 RES1    0.0000
      2 O2         5.1851   10.2618    7.7759 O.3       1 RES1    0.0000
      3 O3         6.4907    8.7757    5.8834 O.3       1 RES1    0.0000
      4 O4         7.6191   10.7476    5.9128 O.2       1 RES1    0.0000
      5 O5         8.8130    4.5975    6.2342 O.2       1 RES1    0.0000
      6 O6        10.7497    4.5458    7.2184 O.2       1 RES1    0.0000
      7 O7        12.2859   10.4955    7.5597 O.2       1 RES1    0.0000
      8 O8        13.2756    8.5824    7.7224 O.2       1 RES1    0.0000
      9 N1         0.5538    6.2669    2.3287 N.am      1 RES1    0.0000
     10 N2         9.8049    5.1468    6.7160 N.pl3     1 RES1    0.0000
     11 N3        12.2999    9.2718    7.4649 N.pl3     1 RES1    0.0000
     12 C1        -0.0364    6.6158    3.4916 C.2       1 RES1    0.0000
     13 C2        -0.3184    8.0882    3.6330 C.ar      1 RES1    0.0000
     14 C3        -1.6011    8.5624    3.3711 C.ar      1 RES1    0.0000
     15 H1        -2.2907    7.9463    3.1494 H         1 RES1    0.0000
     16 C4        -1.8877    9.9179    3.4252 C.ar      1 RES1    0.0000
     17 H2        -2.7630   10.2351    3.2332 H         1 RES1    0.0000
     18 C5        -0.8773   10.8060    3.7656 C.ar      1 RES1    0.0000
     19 H3        -1.0585   11.7376    3.7971 H         1 RES1    0.0000
     20 C6         0.3985   10.3436    4.0624 C.ar      1 RES1    0.0000
     21 H4         1.0741   10.9613    4.3173 H         1 RES1    0.0000
     22 C7         0.7008    8.9880    3.9926 C.ar      1 RES1    0.0000
     23 C8         2.0585    8.4772    4.3016 C.2       1 RES1    0.0000
     24 H5         2.1126    7.5958    4.6490 H         1 RES1    0.0000
     25 C9         3.2003    9.1199    4.1445 C.2       1 RES1    0.0000
     26 H6         3.1808    9.9997    3.7831 H         1 RES1    0.0000
     27 C10        4.5394    8.5223    4.5111 C.3       1 RES1    0.0000
     28 H7         4.3605    7.6408    4.9475 H         1 RES1    0.0000
     29 C11        5.4545    8.2518    3.2908 C.3       1 RES1    0.0000
     30 H8         6.2542    7.7544    3.6242 H         1 RES1    0.0000
     31 C12        4.7286    7.3287    2.2817 C.3       1 RES1    0.0000
     32 H9         4.2560    6.6192    2.7845 H         1 RES1    0.0000
     33 H10        4.0465    7.8595    1.7999 H         1 RES1    0.0000
     34 C13        5.6399    6.6709    1.2587 C.3       1 RES1    0.0000
     35 H11        5.0900    6.1584    0.6145 H         1 RES1    0.0000
     36 H12        6.1234    7.3721    0.7542 H         1 RES1    0.0000
     37 C14        6.6334    5.7511    1.8959 C.2       1 RES1    0.0000
     38 H13        6.2827    5.2002    2.5855 H         1 RES1    0.0000
     39 C15        7.9141    5.5858    1.6533 C.2       1 RES1    0.0000
     40 C16        8.6758    6.2636    0.5691 C.3       1 RES1    0.0000
     41 H14        8.7713    5.6559   -0.1938 H         1 RES1    0.0000
     42 H15        9.5638    6.5140    0.8991 H         1 RES1    0.0000
     43 H16        8.1952    7.0699    0.2863 H         1 RES1    0.0000
     44 C17        8.7290    4.6042    2.4668 C.3       1 RES1    0.0000
     45 H17        9.4404    5.0833    2.9399 H         1 RES1    0.0000
     46 H18        9.1251    3.9348    1.8715 H         1 RES1    0.0000
     47 H19        8.1482    4.1585    3.1180 H         1 RES1    0.0000
     48 C18        5.9588    9.5072    2.6082 C.3       1 RES1    0.0000
     49 H20        5.2007   10.0047    2.2363 H         1 RES1    0.0000
     50 H21        6.5739    9.2602    1.8854 H         1 RES1    0.0000
     51 H22        6.4297   10.0665    3.2594 H         1 RES1    0.0000
     52 C19        0.9383    7.1768    1.2535 C.3       1 RES1    0.0000
     53 H23        1.6840    7.7644    1.5328 H         1 RES1    0.0000
     54 H24        0.1727    7.7393    0.9724 H         1 RES1    0.0000
     55 C20        1.3684    6.2402    0.1379 C.3       1 RES1    0.0000
     56 H25        0.6115    6.0382   -0.4661 H         1 RES1    0.0000
     57 H26        2.1059    6.6359   -0.3911 H         1 RES1    0.0000
     58 C21        1.8300    4.9915    0.8607 C.3       1 RES1    0.0000
     59 H27        1.7696    4.1985    0.2723 H         1 RES1    0.0000
     60 H28        2.7646    5.0900    1.1749 H         1 RES1    0.0000
     61 C22        0.8890    4.8713    2.0181 C.3       1 RES1    0.0000
     62 H29        0.0801    4.3588    1.7667 H         1 RES1    0.0000
     63 H30        1.3259    4.4289    2.7880 H         1 RES1    0.0000
     64 C23        5.2212    9.4221    5.5586 C.3       1 RES1    0.0000
     65 H31        5.3851   10.3319    5.1780 H         1 RES1    0.0000
     66 C24        4.4236    9.5273    6.8277 C.3       1 RES1    0.0000
     67 H32        3.5660    9.9897    6.6497 H         1 RES1    0.0000
     68 H33        4.2245    8.6241    7.1786 H         1 RES1    0.0000
     69 C25        4.4557   10.5289    8.9541 C.3       1 RES1    0.0000
     70 H34        4.0391    9.6925    9.2840 H         1 RES1    0.0000
     71 H35        3.7328   11.1766    8.7586 H         1 RES1    0.0000
     72 C26        5.3663   11.0932   10.0173 C.ar      1 RES1    0.0000
     73 C27        4.8092   11.6207   11.1695 C.ar      1 RES1    0.0000
     74 H36        3.8633   11.6624   11.2533 H         1 RES1    0.0000
     75 C28        5.6019   12.0865   12.1995 C.ar      1 RES1    0.0000
     76 H37        5.2040   12.4420   12.9833 H         1 RES1    0.0000
     77 C29        6.9830   12.0314   12.0843 C.ar      1 RES1    0.0000
     78 H38        7.5358   12.3319   12.7965 H         1 RES1    0.0000
     79 C30        7.5456   11.5406   10.9355 C.ar      1 RES1    0.0000
     80 H39        8.4923   11.5322   10.8448 H         1 RES1    0.0000
     81 C31        6.7589   11.0564    9.9055 C.ar      1 RES1    0.0000
     82 H40        7.1635   10.6992    9.1252 H         1 RES1    0.0000
     83 C32        7.5786    9.5490    6.0613 C.2       1 RES1    0.0000
     84 C33        8.7628    8.7109    6.4210 C.ar      1 RES1    0.0000
     85 C34        9.9440    9.3687    6.7631 C.ar      1 RES1    0.0000
     86 H41        9.9874   10.3186    6.7806 H         1 RES1    0.0000
     87 C35       11.0592    8.5974    7.0756 C.ar      1 RES1    0.0000
     88 C36       11.0377    7.2285    7.0529 C.ar      1 RES1    0.0000
     89 H42       11.8123    6.7193    7.2659 H         1 RES1    0.0000
     90 C37        9.8519    6.6142    6.7090 C.ar      1 RES1    0.0000
     91 C38        8.7013    7.3270    6.3948 C.ar      1 RES1    0.0000
     92 H43        7.8959    6.8779    6.1678 H         1 RES1    0.0000
@<TRIPOS>BOND
     1    1   12 2
     2    2   66 1
     3    3   64 1
     4    4   83 2
     5    5   10 2
     6    6   10 2
     7    7   11 2
     8    8   11 2
     9    9   12 1
    10   10   90 1
    11   11   87 1
    12   12   13 1
    13   13   14 ar
    14   14   15 1
    15   16   14 ar
    16   17   16 1
    17   18   16 ar
    18   19   18 1
    19   20   18 ar
    20   21   20 1
    21   22   13 ar
    22   23   22 1
    23   24   23 1
    24   25   23 2
    25   26   25 1
    26   27   25 1
    27   28   27 1
    28   29   27 1
    29   30   29 1
    30   31   29 1
    31   32   31 1
    32   33   31 1
    33   34   31 1
    34   35   34 1
    35   36   34 1
    36   37   34 1
    37   38   37 1
    38   39   37 2
    39   40   39 1
    40   41   40 1
    41   42   40 1
    42   43   40 1
    43   44   39 1
    44   45   44 1
    45   46   44 1
    46   47   44 1
    47   48   29 1
    48   49   48 1
    49   50   48 1
    50   51   48 1
    51   52    9 1
    52   53   52 1
    53   54   52 1
    54   55   52 1
    55   56   55 1
    56   57   55 1
    57   58   55 1
    58   59   58 1
    59   60   58 1
    60   61    9 1
    61   62   61 1
    62   63   61 1
    63   64   27 1
    64   65   64 1
    65   66   64 1
    66   67   66 1
    67   68   66 1
    68   69    2 1
    69   70   69 1
    70   71   69 1
    71   72   69 1
    72   73   72 ar
    73   74   73 1
    74   75   73 ar
    75   76   75 1
    76   77   75 ar
    77   78   77 1
    78   79   77 ar
    79   80   79 1
    80   81   72 ar
    81   82   81 1
    82   83    3 1
    83   84   83 1
    84   85   84 ar
    85   86   85 1
    86   87   85 ar
    87   88   87 ar
    88   89   88 1
    89   90   88 ar
    90   91   84 ar
    91   92   91 1
    92   20   22 ar
    93   58   61 1
    94   79   81 ar
    95   90   91 ar
@<TRIPOS>SUBSTRUCTURE
     1 RES1 1

@<TRIPOS>CRYSIN
  11.8710   16.6940   17.5399  90.0000  95.5470  90.0000  14 1

