# MOL2 file generated by ConQuest
# Please check atom types

@<TRIPOS>MOLECULE
ZIFLOS
    36    38     1
SMALL
NO_CHARGES
****
Generated from CSD

@<TRIPOS>ATOM
      1 O1         6.7236    4.1174    9.4341 O.2       1 RES1    0.0000
      2 O2         4.6828    3.9353    8.7418 O.2       1 RES1    0.0000
      3 N1         5.8409    4.3358    8.6058 N.pl3     1 RES1    0.0000
      4 N2         7.1073    7.2306    3.9576 N.pl3     1 RES1    0.0000
      5 C1         6.1778    5.0997    7.4199 C.ar      1 RES1    0.0000
      6 C2         6.7997    6.5291    5.1192 C.ar      1 RES1    0.0000
      7 C3         7.4697    5.5707    7.2359 C.ar      1 RES1    0.0000
      8 H1         8.1231    5.4084    7.8778 H         1 RES1    0.0000
      9 C4         5.1978    5.3321    6.4732 C.ar      1 RES1    0.0000
     10 H2         4.3352    5.0113    6.6057 H         1 RES1    0.0000
     11 C5         7.7768    6.2805    6.0983 C.ar      1 RES1    0.0000
     12 H3         8.6419    6.5997    5.9749 H         1 RES1    0.0000
     13 C6         6.2486    7.1503    2.8077 C.ar      1 RES1    0.0000
     14 C7         8.1738    8.1860    3.9270 C.ar      1 RES1    0.0000
     15 C8         5.6786    8.2959    2.2909 C.ar      1 RES1    0.0000
     16 H4         5.8671    9.1209    2.6755 H         1 RES1    0.0000
     17 C9         5.5043    6.0391    5.3361 C.ar      1 RES1    0.0000
     18 H5         4.8437    6.1949    4.7011 H         1 RES1    0.0000
     19 C10        8.3426    9.0928    4.9667 C.ar      1 RES1    0.0000
     20 H6         7.7553    9.0886    5.6880 H         1 RES1    0.0000
     21 C11        5.9886    5.9272    2.2073 C.ar      1 RES1    0.0000
     22 H7         6.3885    5.1548    2.5337 H         1 RES1    0.0000
     23 C12        4.5511    7.0024    0.6244 C.ar      1 RES1    0.0000
     24 H8         3.9712    6.9516   -0.1020 H         1 RES1    0.0000
     25 C13        5.1348    5.8566    1.1236 C.ar      1 RES1    0.0000
     26 H9         4.9534    5.0345    0.7294 H         1 RES1    0.0000
     27 C14        9.3807    9.9978    4.9277 C.ar      1 RES1    0.0000
     28 H10        9.4976   10.5943    5.6309 H         1 RES1    0.0000
     29 C15        4.8287    8.2208    1.2031 C.ar      1 RES1    0.0000
     30 H11        4.4436    8.9954    0.8607 H         1 RES1    0.0000
     31 C16        9.0331    8.2241    2.8471 C.ar      1 RES1    0.0000
     32 H12        8.9181    7.6320    2.1397 H         1 RES1    0.0000
     33 C17       10.0704    9.1478    2.8182 C.ar      1 RES1    0.0000
     34 H13       10.6501    9.1713    2.0913 H         1 RES1    0.0000
     35 C18       10.2437   10.0281    3.8628 C.ar      1 RES1    0.0000
     36 H14       10.9431   10.6408    3.8456 H         1 RES1    0.0000
@<TRIPOS>BOND
     1    1    3 2
     2    2    3 2
     3    3    5 1
     4    4    6 1
     5    5    7 ar
     6    6   11 ar
     7    7    8 1
     8    9    5 ar
     9   10    9 1
    10   11    7 ar
    11   12   11 1
    12   13    4 1
    13   14    4 1
    14   15   13 ar
    15   16   15 1
    16   17    6 ar
    17   18   17 1
    18   19   14 ar
    19   20   19 1
    20   21   13 ar
    21   22   21 1
    22   23   24 1
    23   25   21 ar
    24   26   25 1
    25   27   19 ar
    26   28   27 1
    27   29   15 ar
    28   30   29 1
    29   31   14 ar
    30   32   31 1
    31   33   31 ar
    32   34   33 1
    33   35   27 ar
    34   36   35 1
    35    9   17 ar
    36   23   25 ar
    37   23   29 ar
    38   33   35 ar
@<TRIPOS>SUBSTRUCTURE
     1 RES1 1

@<TRIPOS>CRYSIN
  12.9061   12.9356   17.2834  90.0000  90.0000  90.0000  61 1

