# MOL2 file generated by ConQuest
# Please check atom types

@<TRIPOS>MOLECULE
ZIHFEE
    25    26     1
SMALL
NO_CHARGES
****
Generated from CSD

@<TRIPOS>ATOM
      1 O1        17.3999    5.2363    4.1477 O.3       1 RES1    0.0000
      2 O2        13.5134    2.9879    4.9423 O.2       1 RES1    0.0000
      3 O3        11.9729    4.6261    5.0856 O.3       1 RES1    0.0000
      4 N1        17.5420    4.2353    5.0860 N.2       1 RES1    0.0000
      5 N2        16.0951    5.6679    4.0798 N.2       1 RES1    0.0000
      6 N3        14.1039    5.1748    5.1629 N.am      1 RES1    0.0000
      7 H1        13.8180    5.9526    5.0770 H         1 RES1    0.0000
      8 C1        16.3641    4.0572    5.6112 C.2       1 RES1    0.0000
      9 C2        15.4607    4.9580    4.9614 C.2       1 RES1    0.0000
     10 C3        13.2095    4.1539    5.0458 C.2       1 RES1    0.0000
     11 C4        10.9258    3.6440    4.9516 C.3       1 RES1    0.0000
     12 H2        11.0598    3.0656    4.1832 H         1 RES1    0.0000
     13 H3        10.1188    4.1321    4.7582 H         1 RES1    0.0000
     14 H4        10.8599    3.1152    5.7487 H         1 RES1    0.0000
     15 C5        16.1932    3.1197    6.7308 C.ar      1 RES1    0.0000
     16 C6        15.1439    3.2447    7.6333 C.ar      1 RES1    0.0000
     17 H5        14.5013    3.9585    7.5430 H         1 RES1    0.0000
     18 C7        15.0614    2.3949    8.7211 C.ar      1 RES1    0.0000
     19 H6        14.3519    2.4803    9.3320 H         1 RES1    0.0000
     20 C8        16.0184    1.4157    8.9225 C.ar      1 RES1    0.0000
     21 H7        15.9620    0.8284    9.6940 H         1 RES1    0.0000
     22 C9        17.0692    1.2912    8.0306 C.ar      1 RES1    0.0000
     23 H8        17.7760    0.5953    8.1559 H         1 RES1    0.0000
     24 C10       17.1629    2.1380    6.9454 C.ar      1 RES1    0.0000
     25 H9        17.8897    2.0636    6.3290 H         1 RES1    0.0000
@<TRIPOS>BOND
     1    1    4 1
     2    2   10 2
     3    3   10 1
     4    4    8 2
     5    5    1 1
     6    6    7 1
     7    8    9 1
     8    9    5 2
     9   10    6 1
    10   11    3 1
    11   12   11 1
    12   13   11 1
    13   14   11 1
    14   15    8 1
    15   16   15 ar
    16   17   16 1
    17   18   16 ar
    18   19   18 1
    19   20   18 ar
    20   21   20 1
    21   22   20 ar
    22   23   22 1
    23   24   15 ar
    24   25   24 1
    25    6    9 1
    26   22   24 ar
@<TRIPOS>SUBSTRUCTURE
     1 RES1 1

@<TRIPOS>CRYSIN
  30.1810    4.9605   15.0490  90.0000 119.7290  90.0000  15 1

