# MOL2 file generated by ConQuest
# Please check atom types

@<TRIPOS>MOLECULE
ZIHKOT
    45    47     1
SMALL
USER_CHARGES
****
Generated from CSD

@<TRIPOS>ATOM
      1 O1         2.0937    1.2406    5.6362 O.2       1 RES1   -1.0000
      2 O2         0.0474   -2.9603    2.7165 O.2       1 RES1    0.0000
      3 O3         1.7266   -1.5054    2.5842 O.3       1 RES1    0.0000
      4 O4        -2.3606    0.0214    4.1203 O.3       1 RES1    0.0000
      5 O5        -1.8827   -0.8935    2.1391 O.2       1 RES1    0.0000
      6 N1         1.2508    0.3803    5.1935 N.pl3     1 RES1    1.0000
      7 C1         0.5816    0.4279    4.0620 C.2       1 RES1    0.0000
      8 C2        -0.1812   -0.8617    3.8603 C.3       1 RES1    0.0000
      9 C3        -0.2448   -1.4262    5.3022 C.3       1 RES1    0.0000
     10 H1        -1.0529   -1.1331    5.7519 H         1 RES1    0.0000
     11 H2        -0.2242   -2.3957    5.2938 H         1 RES1    0.0000
     12 C4         0.9946   -0.8632    5.9943 C.3       1 RES1    0.0000
     13 H3         1.7454   -1.4862    5.8987 H         1 RES1    0.0000
     14 C5         0.5508    1.5980    3.1957 C.ar      1 RES1    0.0000
     15 C6         0.4103    1.4720    1.8109 C.ar      1 RES1    0.0000
     16 H4         0.4047    0.6293    1.4173 H         1 RES1    0.0000
     17 C7         0.2798    2.6112    1.0221 C.ar      1 RES1    0.0000
     18 H5         0.1961    2.5272    0.0996 H         1 RES1    0.0000
     19 C8         0.2745    3.8636    1.5997 C.ar      1 RES1    0.0000
     20 H6         0.1819    4.6214    1.0692 H         1 RES1    0.0000
     21 C9         0.4068    3.9911    2.9729 C.ar      1 RES1    0.0000
     22 H7         0.3929    4.8339    3.3650 H         1 RES1    0.0000
     23 C10        0.5577    2.8737    3.7539 C.ar      1 RES1    0.0000
     24 H8         0.6674    2.9703    4.6722 H         1 RES1    0.0000
     25 C11        0.5260   -1.8949    2.9749 C.2       1 RES1    0.0000
     26 C12        2.5014   -2.5140    1.8649 C.3       1 RES1    0.0000
     27 H9         2.0830   -2.6962    1.0200 H         1 RES1    0.0000
     28 H10        2.5375   -3.3204    2.3848 H         1 RES1    0.0000
     29 H11        3.3920   -2.1873    1.7171 H         1 RES1    0.0000
     30 C13       -1.5673   -0.6019    3.2498 C.2       1 RES1    0.0000
     31 C14       -3.6885    0.3430    3.6239 C.3       1 RES1    0.0000
     32 H12       -3.6151    0.9500    2.8849 H         1 RES1    0.0000
     33 H13       -4.2014    0.7527    4.3252 H         1 RES1    0.0000
     34 H14       -4.1260   -0.4613    3.3356 H         1 RES1    0.0000
     35 C15        0.7974   -0.5108    7.4471 C.ar      1 RES1    0.0000
     36 C16        1.5431   -1.1422    8.4328 C.ar      1 RES1    0.0000
     37 H15        2.1502   -1.8079    8.2018 H         1 RES1    0.0000
     38 C17        1.3831   -0.7810    9.7648 C.ar      1 RES1    0.0000
     39 H16        1.8829   -1.2039   10.4252 H         1 RES1    0.0000
     40 C18        0.4827    0.2064   10.1071 C.ar      1 RES1    0.0000
     41 H17        0.3856    0.4542   10.9975 H         1 RES1    0.0000
     42 C19       -0.2749    0.8266    9.1343 C.ar      1 RES1    0.0000
     43 H18       -0.8896    1.4831    9.3716 H         1 RES1    0.0000
     44 C20       -0.1181    0.4714    7.8076 C.ar      1 RES1    0.0000
     45 H19       -0.6277    0.8913    7.1524 H         1 RES1    0.0000
@<TRIPOS>BOND
     1    1    6 1
     2    2   25 2
     3    3   25 1
     4    4   30 1
     5    5   30 2
     6    6    7 2
     7    7    8 1
     8    8    9 1
     9    9   10 1
    10   11    9 1
    11   12    6 1
    12   13   12 1
    13   14    7 1
    14   15   14 ar
    15   16   15 1
    16   17   15 ar
    17   18   17 1
    18   19   17 ar
    19   20   19 1
    20   21   19 ar
    21   22   21 1
    22   23   14 ar
    23   24   23 1
    24   25    8 1
    25   26    3 1
    26   27   26 1
    27   28   26 1
    28   29   26 1
    29   30    8 1
    30   31    4 1
    31   32   31 1
    32   33   31 1
    33   34   31 1
    34   35   12 1
    35   36   35 ar
    36   37   36 1
    37   38   36 ar
    38   39   38 1
    39   40   38 ar
    40   41   40 1
    41   42   40 ar
    42   43   42 1
    43   44   35 ar
    44   45   44 1
    45    9   12 1
    46   21   23 ar
    47   42   44 ar
@<TRIPOS>SUBSTRUCTURE
     1 RES1 1

@<TRIPOS>CRYSIN
   8.2648   10.1169   10.9096  90.0000 106.0790  90.0000   4 1

