# MOL2 file generated by ConQuest
# Please check atom types

@<TRIPOS>MOLECULE
ZIKYIB
    23    25     1
SMALL
NO_CHARGES
****
Generated from CSD

@<TRIPOS>ATOM
      1 O1         3.2373    4.8291    1.0719 O.3       1 RES1    0.0000
      2 O2         3.3195    4.1184   -4.8031 O.2       1 RES1    0.0000
      3 O3         5.0478    3.9000   -3.5292 O.2       1 RES1    0.0000
      4 N1         3.8552    4.1258   -3.7040 N.pl3     1 RES1    0.0000
      5 C1         2.8197    4.7505   -0.2381 C.ar      1 RES1    0.0000
      6 C2         3.6433    4.4412   -1.2957 C.ar      1 RES1    0.0000
      7 C3         3.0256    4.4237   -2.5333 C.ar      1 RES1    0.0000
      8 C4         1.6743    4.6799   -2.7224 C.ar      1 RES1    0.0000
      9 C5         0.8780    4.9680   -1.6319 C.ar      1 RES1    0.0000
     10 C6         1.4552    5.0153   -0.3709 C.ar      1 RES1    0.0000
     11 C7         0.9890    5.2801    0.9738 C.ar      1 RES1    0.0000
     12 C8        -0.2415    5.5971    1.5568 C.ar      1 RES1    0.0000
     13 C9        -0.2933    5.7932    2.9200 C.ar      1 RES1    0.0000
     14 C10        0.8426    5.6757    3.7058 C.ar      1 RES1    0.0000
     15 C11        2.0723    5.3618    3.1628 C.ar      1 RES1    0.0000
     16 C12        2.0986    5.1620    1.7980 C.ar      1 RES1    0.0000
     17 H1         4.5774    4.2502   -1.1982 H         1 RES1    0.0000
     18 H2         1.2811    4.6609   -3.5331 H         1 RES1    0.0000
     19 H3        -0.0625    5.1406   -1.7717 H         1 RES1    0.0000
     20 H4        -1.0192    5.7074    0.9934 H         1 RES1    0.0000
     21 H5        -1.1868    6.0136    3.2669 H         1 RES1    0.0000
     22 H6         0.7619    5.8003    4.6187 H         1 RES1    0.0000
     23 H7         2.8619    5.2559    3.6765 H         1 RES1    0.0000
@<TRIPOS>BOND
     1    1    5 1
     2    2    4 2
     3    3    4 2
     4    4    7 1
     5    5    6 ar
     6    6    7 ar
     7    7    8 ar
     8    8    9 ar
     9    9   10 ar
    10   10    5 ar
    11   11   10 1
    12   12   11 ar
    13   13   12 ar
    14   14   13 ar
    15   15   14 ar
    16   16    1 1
    17   17    6 1
    18   18    8 1
    19   19    9 1
    20   20   12 1
    21   21   13 1
    22   22   14 1
    23   23   15 1
    24   11   16 ar
    25   15   16 ar
@<TRIPOS>SUBSTRUCTURE
     1 RES1 1

@<TRIPOS>CRYSIN
   6.8860    7.1060   10.5910  75.2300  84.7200  69.4600   2 1

