# MOL2 file generated by ConQuest
# Please check atom types

@<TRIPOS>MOLECULE
ZILJUB
    42    46     1
SMALL
NO_CHARGES
****
Generated from CSD

@<TRIPOS>ATOM
      1 N1         1.0399   10.4693    0.9001 N.pl3     1 RES1    0.0000
      2 O1         0.9648   10.2505    2.1056 O.2       1 RES1    0.0000
      3 O2         0.7155   11.5390    0.3916 O.2       1 RES1    0.0000
      4 C1         1.9010    8.2138    0.5669 C.ar      1 RES1    0.0000
      5 C2         1.4898    9.4048    0.0080 C.ar      1 RES1    0.0000
      6 C3         1.4809    9.5922   -1.3648 C.ar      1 RES1    0.0000
      7 C4         1.8803    8.5735   -2.1720 C.ar      1 RES1    0.0000
      8 C5         2.2602    7.3503   -1.6255 C.ar      1 RES1    0.0000
      9 O3         2.6215    6.3841   -2.5097 O.3       1 RES1    0.0000
     10 C6         2.6302    5.0404   -1.9781 C.3       1 RES1    0.0000
     11 C7         3.3826    4.9463   -0.6917 C.3       1 RES1    0.0000
     12 C8         4.8650    5.3356   -0.7408 C.3       1 RES1    0.0000
     13 C9         5.0408    6.3688    0.4005 C.3       1 RES1    0.0000
     14 C10        6.3719    6.3366    1.0920 C.ar      1 RES1    0.0000
     15 C11        7.4954    6.8226    0.4275 C.ar      1 RES1    0.0000
     16 C12        8.7297    6.8294    1.0315 C.ar      1 RES1    0.0000
     17 C13        8.8689    6.3510    2.3140 C.ar      1 RES1    0.0000
     18 C14        7.7717    5.8565    2.9712 C.ar      1 RES1    0.0000
     19 C15        6.5088    5.8471    2.3824 C.ar      1 RES1    0.0000
     20 C16        5.2949    5.3704    3.1238 C.3       1 RES1    0.0000
     21 C17        4.1481    5.0413    2.2144 C.3       1 RES1    0.0000
     22 N2         3.8923    6.1754    1.3111 N.3       1 RES1    0.0000
     23 C18        2.7937    5.8768    0.3829 C.3       1 RES1    0.0000
     24 C19        2.2968    7.1662   -0.2455 C.ar      1 RES1    0.0000
     25 H1         1.9214    8.1349    1.6130 H         1 RES1    0.0000
     26 H2         1.1662   10.4252   -1.6595 H         1 RES1    0.0000
     27 H3         1.9319    8.6608   -3.1597 H         1 RES1    0.0000
     28 H4         3.2926    4.0208   -0.3478 H         1 RES1    0.0000
     29 H5         3.0379    4.5043   -2.7216 H         1 RES1    0.0000
     30 H6         1.6727    4.7758   -1.9117 H         1 RES1    0.0000
     31 H7         4.9443    7.2527    0.0159 H         1 RES1    0.0000
     32 H8         5.0767    5.7004   -1.5666 H         1 RES1    0.0000
     33 H9         5.5091    4.5467   -0.6107 H         1 RES1    0.0000
     34 H10        7.3891    7.1594   -0.4832 H         1 RES1    0.0000
     35 H11        9.5124    7.1509    0.5178 H         1 RES1    0.0000
     36 H12        9.7372    6.3620    2.7614 H         1 RES1    0.0000
     37 H13        7.8131    5.5222    3.8102 H         1 RES1    0.0000
     38 H14        4.4043    4.2074    1.7007 H         1 RES1    0.0000
     39 H15        5.4990    4.6061    3.7040 H         1 RES1    0.0000
     40 H16        5.0341    6.0482    3.7837 H         1 RES1    0.0000
     41 H17        3.2933    4.9030    2.7442 H         1 RES1    0.0000
     42 H18        2.0607    5.4544    0.8855 H         1 RES1    0.0000
@<TRIPOS>BOND
     1    1    2 2
     2    3    1 2
     3    4    5 ar
     4    5    1 1
     5    6    5 ar
     6    7    6 ar
     7    8    7 ar
     8    9    8 1
     9   10    9 1
    10   11   10 1
    11   12   11 1
    12   13   12 1
    13   14   13 1
    14   15   14 ar
    15   16   15 ar
    16   17   16 ar
    17   18   17 ar
    18   19   14 ar
    19   20   19 1
    20   21   20 1
    21   22   13 1
    22   23   11 1
    23   24    4 ar
    24   25    4 1
    25   26    6 1
    26   27    7 1
    27   28   11 1
    28   29   10 1
    29   30   10 1
    30   31   13 1
    31   32   12 1
    32   33   12 1
    33   34   15 1
    34   35   16 1
    35   36   17 1
    36   37   18 1
    37   38   21 1
    38   39   20 1
    39   40   20 1
    40   41   21 1
    41   42   23 1
    42    8   24 ar
    43   18   19 ar
    44   21   22 1
    45   22   23 1
    46   23   24 1
@<TRIPOS>SUBSTRUCTURE
     1 RES1 1

@<TRIPOS>CRYSIN
  13.9267    8.4827   13.6567  90.0000 103.5600  90.0000  14 1

