# MOL2 file generated by ConQuest
# Please check atom types

@<TRIPOS>MOLECULE
ZILKIR
    52    55     1
SMALL
NO_CHARGES
****
Generated from CSD

@<TRIPOS>ATOM
      1 C1         7.1086    3.9733   10.3567 C.ar      1 RES1    0.0000
      2 H1         7.0759    3.5069    9.5530 H         1 RES1    0.0000
      3 C2         8.3260    4.2608   10.9446 C.ar      1 RES1    0.0000
      4 C3         8.4168    4.9503   12.1334 C.ar      1 RES1    0.0000
      5 H2         9.2421    5.1686   12.5053 H         1 RES1    0.0000
      6 C4         7.2404    5.3007   12.7485 C.ar      1 RES1    0.0000
      7 C5         6.0171    5.0373   12.2036 C.ar      1 RES1    0.0000
      8 H3         5.2423    5.2926   12.6523 H         1 RES1    0.0000
      9 C6         5.9296    4.3865   10.9758 C.ar      1 RES1    0.0000
     10 C7         4.5847    4.2479   10.3736 C.2       1 RES1    0.0000
     11 C8         3.4023    3.4667    8.3941 C.3       1 RES1    0.0000
     12 C9         2.9109    4.8110    7.9103 C.3       1 RES1    0.0000
     13 H4         3.3163    5.0437    7.0597 H         1 RES1    0.0000
     14 H5         3.1112    5.5069    8.5554 H         1 RES1    0.0000
     15 C10        1.4066    4.6201    7.7633 C.3       1 RES1    0.0000
     16 H6         1.2559    4.1086    6.9413 H         1 RES1    0.0000
     17 C11        0.6185    5.9265    7.6424 C.3       1 RES1    0.0000
     18 H7        -0.3165    5.7300    7.5565 H         1 RES1    0.0000
     19 H8         0.9154    6.4082    6.8659 H         1 RES1    0.0000
     20 H9         0.7635    6.4621    8.4253 H         1 RES1    0.0000
     21 C12        1.0449    3.7252    8.9235 C.3       1 RES1    0.0000
     22 H10        0.2429    3.2178    8.7193 H         1 RES1    0.0000
     23 H11        0.8803    4.2560    9.7194 H         1 RES1    0.0000
     24 C13        2.2202    2.7869    9.1498 C.3       1 RES1    0.0000
     25 H12        2.4243    2.7289   10.1070 H         1 RES1    0.0000
     26 C14        2.1025    1.3725    8.5502 C.3       1 RES1    0.0000
     27 H13        1.3802    1.3338    7.9038 H         1 RES1    0.0000
     28 H14        1.9328    0.7185    9.2460 H         1 RES1    0.0000
     29 C15        3.4393    1.1035    7.8765 C.3       1 RES1    0.0000
     30 H15        4.1141    0.8369    8.5203 H         1 RES1    0.0000
     31 H16        3.3613    0.4213    7.1924 H         1 RES1    0.0000
     32 C16        3.7537    2.4751    7.2691 C.3       1 RES1    0.0000
     33 H17        3.0808    2.6169    6.5707 H         1 RES1    0.0000
     34 C17        5.0887    2.6741    6.5941 C.ar      1 RES1    0.0000
     35 C18        5.1532    3.3628    5.3884 C.ar      1 RES1    0.0000
     36 H18        4.3723    3.6592    4.9813 H         1 RES1    0.0000
     37 C19        6.3886    3.6092    4.7888 C.ar      1 RES1    0.0000
     38 H19        6.4260    4.0651    3.9786 H         1 RES1    0.0000
     39 C20        7.5412    3.1888    5.3767 C.ar      1 RES1    0.0000
     40 H20        8.3615    3.3716    4.9787 H         1 RES1    0.0000
     41 C21        7.4911    2.4993    6.5499 C.ar      1 RES1    0.0000
     42 H21        8.2790    2.2045    6.9465 H         1 RES1    0.0000
     43 C22        6.2811    2.2375    7.1520 C.ar      1 RES1    0.0000
     44 H22        6.2629    1.7575    7.9480 H         1 RES1    0.0000
     45 N1         9.5593    3.8275   10.2891 N.pl3     1 RES1    0.0000
     46 N2         7.3139    6.0014   14.0452 N.pl3     1 RES1    0.0000
     47 O1         9.4705    3.0921    9.3161 O.2       1 RES1    0.0000
     48 O2        10.6247    4.2189   10.7512 O.2       1 RES1    0.0000
     49 O3         8.3801    6.5056   14.3668 O.2       1 RES1    0.0000
     50 O4         6.2985    6.0030   14.7216 O.2       1 RES1    0.0000
     51 O5         4.6192    3.5673    9.2177 O.3       1 RES1    0.0000
     52 O6         3.5991    4.7336   10.8608 O.2       1 RES1    0.0000
@<TRIPOS>BOND
     1    1    2 1
     2    3    1 ar
     3    4    3 ar
     4    5    4 1
     5    6    4 ar
     6    7    6 ar
     7    8    7 1
     8    9    1 ar
     9   10    9 1
    10   11   12 1
    11   12   13 1
    12   14   12 1
    13   15   12 1
    14   16   15 1
    15   17   15 1
    16   18   17 1
    17   19   17 1
    18   20   17 1
    19   21   15 1
    20   22   21 1
    21   23   21 1
    22   24   11 1
    23   25   24 1
    24   26   24 1
    25   27   26 1
    26   28   26 1
    27   29   26 1
    28   30   29 1
    29   31   29 1
    30   32   11 1
    31   33   32 1
    32   34   32 1
    33   35   34 ar
    34   36   35 1
    35   37   35 ar
    36   38   37 1
    37   39   37 ar
    38   40   39 1
    39   41   39 ar
    40   42   41 1
    41   43   34 ar
    42   44   43 1
    43   45    3 1
    44   46    6 1
    45   47   45 2
    46   48   45 2
    47   49   46 2
    48   50   46 2
    49   51   10 1
    50   52   10 2
    51    7    9 ar
    52   11   51 1
    53   21   24 1
    54   29   32 1
    55   41   43 ar
@<TRIPOS>SUBSTRUCTURE
     1 RES1 1

@<TRIPOS>CRYSIN
  19.8170    8.0545   13.0062  90.0000  90.2660  90.0000  14 1

