# MOL2 file generated by ConQuest
# Please check atom types

@<TRIPOS>MOLECULE
ZILNOX
    22    21     1
SMALL
NO_CHARGES
****
Generated from CSD

@<TRIPOS>ATOM
      1 C1         2.9762    2.6481    0.5165 C.3       1 RES1    0.0000
      2 C2         4.3509    2.5570    1.1085 C.3       1 RES1    0.0000
      3 C3         4.3772    1.8567    2.4882 C.3       1 RES1    0.0000
      4 C4         3.8825    0.4365    2.4939 C.3       1 RES1    0.0000
      5 N1         5.0341    3.9349    1.1342 N.pl3     1 RES1    0.0000
      6 N2         5.2261    1.7626    0.0942 N.pl3     1 RES1    0.0000
      7 N3         5.7844    1.8299    3.0916 N.pl3     1 RES1    0.0000
      8 N4         3.5339    2.7019    3.4640 N.pl3     1 RES1    0.0000
      9 O1         5.9591    4.0838    1.8889 O.2       1 RES1    0.0000
     10 O2         4.6124    4.7572    0.3552 O.2       1 RES1    0.0000
     11 O3         6.2402    2.2591   -0.2953 O.2       1 RES1    0.0000
     12 O4         4.7711    0.6951   -0.2568 O.2       1 RES1    0.0000
     13 O5         6.6112    1.2733    2.4125 O.2       1 RES1    0.0000
     14 O6         5.9453    2.2860    4.1873 O.2       1 RES1    0.0000
     15 O7         3.4158    3.8780    3.2272 O.2       1 RES1    0.0000
     16 O8         3.0536    2.1050    4.3956 O.2       1 RES1    0.0000
     17 H1         2.6045    1.7968    0.4737 H         1 RES1    0.0000
     18 H2         3.0276    3.0515   -0.3310 H         1 RES1    0.0000
     19 H3         2.4453    3.1870    1.0672 H         1 RES1    0.0000
     20 H4         4.4531   -0.1438    2.0216 H         1 RES1    0.0000
     21 H5         3.9394    0.0828    3.3941 H         1 RES1    0.0000
     22 H6         3.0031    0.3600    2.1700 H         1 RES1    0.0000
@<TRIPOS>BOND
     1    1    2 1
     2    2    3 1
     3    3    4 1
     4    4   20 1
     5    5    2 1
     6    6    2 1
     7    7    3 1
     8    8    3 1
     9    9    5 2
    10   10    5 2
    11   11    6 2
    12   12    6 2
    13   13    7 2
    14   14    7 2
    15   15    8 2
    16   16    8 2
    17   17    1 1
    18   18    1 1
    19   19    1 1
    20   21    4 1
    21   22    4 1
@<TRIPOS>SUBSTRUCTURE
     1 RES1 1

@<TRIPOS>CRYSIN
   6.2240   10.3440   14.5500  90.0000 101.3200  90.0000  14 1

