# MOL2 file generated by ConQuest
# Please check atom types

@<TRIPOS>MOLECULE
ZIMCUW
    45    49     1
SMALL
NO_CHARGES
****
Generated from CSD

@<TRIPOS>ATOM
      1 O1         2.1611    3.9309    7.5385 O.2       1 RES1    0.0000
      2 O2         4.1302   13.9583   11.6158 O.3       1 RES1    0.0000
      3 O3         7.0567    6.9042   10.6817 O.3       1 RES1    0.0000
      4 O4         2.7542    4.4367    5.4258 O.3       1 RES1    0.0000
      5 N1         6.8751    8.2860   10.9533 N.2       1 RES1    0.0000
      6 C1         4.4114   12.6469   11.3511 C.ar      1 RES1    0.0000
      7 C2         5.6718    8.6294   10.6739 C.2       1 RES1    0.0000
      8 C3         5.2298   10.0085   10.9004 C.ar      1 RES1    0.0000
      9 C4         3.5236   11.7313   10.8249 C.ar      1 RES1    0.0000
     10 H1         2.6555   11.9902   10.6135 H         1 RES1    0.0000
     11 C5         4.8149    7.5141   10.1276 C.3       1 RES1    0.0000
     12 H2         4.0135    7.3606   10.6701 H         1 RES1    0.0000
     13 C6         3.6303    6.3700    8.3578 C.3       1 RES1    0.0000
     14 H3         2.7626    6.2951    8.8072 H         1 RES1    0.0000
     15 C7         4.5989    5.2209    8.4434 C.3       1 RES1    0.0000
     16 H4         4.3397    4.4207    8.9469 H         1 RES1    0.0000
     17 C8         2.8443    4.5494    6.7593 C.2       1 RES1    0.0000
     18 C9         4.4927    7.6040    8.6108 C.3       1 RES1    0.0000
     19 H5         4.1181    8.4558    8.3037 H         1 RES1    0.0000
     20 C10        3.9025    5.5124    7.1268 C.3       1 RES1    0.0000
     21 H6         4.4354    5.9046    6.4043 H         1 RES1    0.0000
     22 C11        3.9355   10.4192   10.6122 C.ar      1 RES1    0.0000
     23 H7         3.3298    9.8032   10.2698 H         1 RES1    0.0000
     24 C12        6.1077   10.9543   11.4404 C.ar      1 RES1    0.0000
     25 H8         6.9784   10.7036   11.6494 H         1 RES1    0.0000
     26 C13        5.7077   12.2428   11.6657 C.ar      1 RES1    0.0000
     27 H9         6.3052   12.8539   12.0320 H         1 RES1    0.0000
     28 C14        5.8087    6.3267   10.1943 C.3       1 RES1    0.0000
     29 H10        5.4847    5.6079   10.7758 H         1 RES1    0.0000
     30 C15        5.8521    7.2191    8.0130 C.3       1 RES1    0.0000
     31 H11        5.8230    7.1225    7.0488 H         1 RES1    0.0000
     32 H12        6.5597    7.8317    8.2672 H         1 RES1    0.0000
     33 C16        5.9435    5.8726    8.7417 C.3       1 RES1    0.0000
     34 H13        6.7345    5.3318    8.5366 H         1 RES1    0.0000
     35 C17        2.8210   14.4329   11.3133 C.3       1 RES1    0.0000
     36 H14        2.7549   15.3612   11.5474 H         1 RES1    0.0000
     37 H15        2.1744   13.9299   11.8143 H         1 RES1    0.0000
     38 H16        2.6512   14.3269   10.3743 H         1 RES1    0.0000
     39 C18        1.7411    3.5186    4.9140 C.3       1 RES1    0.0000
     40 H17        1.6659    2.7556    5.5081 H         1 RES1    0.0000
     41 H18        2.0081    3.1954    4.0392 H         1 RES1    0.0000
     42 C19        0.4198    4.2017    4.8108 C.3       1 RES1    0.0000
     43 H19       -0.2333    3.5857    4.4709 H         1 RES1    0.0000
     44 H20        0.4932    4.9524    4.2167 H         1 RES1    0.0000
     45 H21        0.1492    4.5075    5.6806 H         1 RES1    0.0000
@<TRIPOS>BOND
     1    1   17 2
     2    2    6 1
     3    3    5 1
     4    4   17 1
     5    5    7 2
     6    6    9 ar
     7    7    8 1
     8    8   22 ar
     9    9   10 1
    10   11    7 1
    11   12   11 1
    12   13   14 1
    13   15   13 1
    14   16   15 1
    15   17   20 1
    16   18   11 1
    17   19   18 1
    18   20   13 1
    19   21   20 1
    20   22    9 ar
    21   23   22 1
    22   24    8 ar
    23   25   24 1
    24   26    6 ar
    25   27   26 1
    26   28    3 1
    27   29   28 1
    28   30   18 1
    29   31   30 1
    30   32   30 1
    31   33   15 1
    32   34   33 1
    33   35    2 1
    34   36   35 1
    35   37   35 1
    36   38   35 1
    37   39    4 1
    38   40   39 1
    39   41   39 1
    40   42   39 1
    41   43   42 1
    42   44   42 1
    43   45   42 1
    44   11   28 1
    45   13   18 1
    46   15   20 1
    47   24   26 ar
    48   28   33 1
    49   30   33 1
@<TRIPOS>SUBSTRUCTURE
     1 RES1 1

@<TRIPOS>CRYSIN
   6.3385   10.2525   13.5880  68.1640  85.7580  87.7710   2 1

