# MOL2 file generated by ConQuest
# Please check atom types

@<TRIPOS>MOLECULE
ZIPSIC
    13    13     1
SMALL
NO_CHARGES
****
Generated from CSD

@<TRIPOS>ATOM
      1 O1         6.7258    4.9021    1.9770 O.3       1 RES1    0.0000
      2 N1         6.6475    3.5389    1.9404 N.2       1 RES1    0.0000
      3 C1         5.7025    3.2489    1.0997 C.2       1 RES1    0.0000
      4 C2         5.1383    4.4653    0.5747 C.2       1 RES1    0.0000
      5 N2         5.7782    5.4761    1.1133 N.2       1 RES1    0.0000
      6 O2         4.1756    1.6886    0.2529 O.2       1 RES1    0.0000
      7 N3         6.1399    0.8949    1.0558 N.am      1 RES1    0.0000
      8 H1         5.9413    0.0755    0.8848 H         1 RES1    0.0000
      9 H2         6.8970    1.0883    1.4150 H         1 RES1    0.0000
     10 C3         5.2815    1.8563    0.7665 C.2       1 RES1    0.0000
     11 N4         4.1613    4.5825   -0.3345 N.3       1 RES1    0.0000
     12 H3         3.9149    5.3610   -0.6028 H         1 RES1    0.0000
     13 H4         3.7804    3.8782   -0.6495 H         1 RES1    0.0000
@<TRIPOS>BOND
     1    1    2 1
     2    2    3 2
     3    3    4 1
     4    4    5 2
     5    5    1 1
     6    6   10 2
     7    7    8 1
     8    9    7 1
     9   10    3 1
    10   11    4 1
    11   12   11 1
    12   13   11 1
    13    7   10 1
@<TRIPOS>SUBSTRUCTURE
     1 RES1 1

@<TRIPOS>CRYSIN
   4.7946   13.0185    8.0635  90.0000  92.0580  90.0000  14 1

