# MOL2 file generated by ConQuest
# Please check atom types

@<TRIPOS>MOLECULE
ZIPTAT
    19    20     1
SMALL
NO_CHARGES
****
Generated from CSD

@<TRIPOS>ATOM
      1 O1        -0.5135   -0.8290   14.2001 O.2       1 RES1    0.0000
      2 O2        -0.0967    1.5055   10.2256 O.2       1 RES1    0.0000
      3 O3        -4.7817    4.9097   11.7109 O.2       1 RES1    0.0000
      4 N1        -0.0596   -0.3904   13.0890 N.pl3     1 RES1    0.0000
      5 N2         0.1668    0.7517   11.2256 N.3       1 RES1    0.0000
      6 C1        -0.6350    0.5267   12.2859 C.2       1 RES1    0.0000
      7 C2         1.2103   -0.9476   12.4964 C.3       1 RES1    0.0000
      8 C3         1.5081    0.0852   11.3795 C.3       1 RES1    0.0000
      9 C4         0.8323   -2.3381   11.9741 C.3       1 RES1    0.0000
     10 C5         2.2503   -1.0377   13.5900 C.3       1 RES1    0.0000
     11 C6         2.4747    1.1847   11.7772 C.3       1 RES1    0.0000
     12 C7         1.9382   -0.5082   10.0463 C.3       1 RES1    0.0000
     13 C8        -1.9287    1.1832   12.5257 C.ar      1 RES1    0.0000
     14 C9        -2.1989    2.4460   11.9994 C.ar      1 RES1    0.0000
     15 C10       -3.4339    3.0500   12.2333 C.ar      1 RES1    0.0000
     16 C11       -4.3997    2.3913   12.9935 C.ar      1 RES1    0.0000
     17 C12       -4.1298    1.1286   13.5217 C.ar      1 RES1    0.0000
     18 C13       -2.9038    0.5245   13.3911 C.ar      1 RES1    0.0000
     19 C14       -3.7177    4.3504   11.6446 C.2       1 RES1    0.0000
@<TRIPOS>BOND
     1    1    4 1
     2    2    5 1
     3    3   19 2
     4    4    6 2
     5    5    6 1
     6    6   13 1
     7    7    4 1
     8    8    5 1
     9    9    7 1
    10   10    7 1
    11   11    8 1
    12   12    8 1
    13   13   14 ar
    14   14   15 ar
    15   15   16 ar
    16   16   17 ar
    17   17   18 ar
    18   18   13 ar
    19   19   15 1
    20    7    8 1
@<TRIPOS>SUBSTRUCTURE
     1 RES1 1

@<TRIPOS>CRYSIN
   9.8560    7.0980   19.5840  90.0000  95.5500  90.0000 231 1

