# MOL2 file generated by ConQuest
# Please check atom types

@<TRIPOS>MOLECULE
ZITHUH
    22    23     1
SMALL
NO_CHARGES
****
Generated from CSD

@<TRIPOS>ATOM
      1 O1        -6.1651   -0.9036   -0.1439 O.2       1 RES1    0.0000
      2 O2        -8.5676   -1.9283   -1.2488 O.3       1 RES1    0.0000
      3 O3       -13.4721   -1.7751    0.9885 O.2       1 RES1    0.0000
      4 O4       -13.6816   -0.5433    2.7354 O.2       1 RES1    0.0000
      5 N1        -7.5365   -0.2401    1.6314 N.am      1 RES1    0.0000
      6 H1        -6.9580    0.1183    2.1572 H         1 RES1    0.0000
      7 N2        -8.4715   -1.2065   -0.0957 N.am      1 RES1    0.0000
      8 N3       -13.0076   -1.0646    1.8547 N.pl3     1 RES1    0.0000
      9 C1        -7.2509   -0.7908    0.4051 C.2       1 RES1    0.0000
     10 C2        -9.4895   -0.9564    0.8101 C.ar      1 RES1    0.0000
     11 C3       -10.8428   -1.2391    0.7472 C.ar      1 RES1    0.0000
     12 H2       -11.2358   -1.6692    0.0224 H         1 RES1    0.0000
     13 C4       -11.5634   -0.8238    1.8633 C.ar      1 RES1    0.0000
     14 C5       -11.0005   -0.1753    2.9509 C.ar      1 RES1    0.0000
     15 H3       -11.5414    0.0993    3.6559 H         1 RES1    0.0000
     16 C6        -9.6340    0.0663    2.9949 C.ar      1 RES1    0.0000
     17 H4        -9.2342    0.4836    3.7231 H         1 RES1    0.0000
     18 C7        -8.8980   -0.3452    1.8986 C.ar      1 RES1    0.0000
     19 C8        -8.9804   -1.0910   -2.3528 C.3       1 RES1    0.0000
     20 H5        -9.8090   -0.6613   -2.1365 H         1 RES1    0.0000
     21 H6        -9.0943   -1.6308   -3.1388 H         1 RES1    0.0000
     22 H7        -8.3071   -0.4251   -2.5174 H         1 RES1    0.0000
@<TRIPOS>BOND
     1    1    9 2
     2    2    7 1
     3    3    8 2
     4    4    8 2
     5    5    6 1
     6    7    9 1
     7    8   13 1
     8    9    5 1
     9   10    7 1
    10   11   10 ar
    11   12   11 1
    12   13   11 ar
    13   14   13 ar
    14   15   14 1
    15   16   14 ar
    16   17   16 1
    17   18    5 1
    18   19    2 1
    19   20   19 1
    20   21   19 1
    21   22   19 1
    22   10   18 ar
    23   16   18 ar
@<TRIPOS>SUBSTRUCTURE
     1 RES1 1

@<TRIPOS>CRYSIN
  25.8950    3.8783    8.6183  90.0000  90.0000  90.0000  33 1

