# MOL2 file generated by ConQuest
# Please check atom types

@<TRIPOS>MOLECULE
ZITKAQ
    23    24     1
SMALL
NO_CHARGES
****
Generated from CSD

@<TRIPOS>ATOM
      1 O1         0.4859    2.1609    1.5885 O.3       1 RES1    0.0000
      2 O2         3.5900    1.8333   -0.0210 O.2       1 RES1    0.0000
      3 N1         1.7344    2.5710    1.0730 N.am      1 RES1    0.0000
      4 N2         1.9978    0.3309    0.6022 N.am      1 RES1    0.0000
      5 H1         2.4460   -0.3546    0.2794 H         1 RES1    0.0000
      6 H2         1.2176    0.2031    0.9885 H         1 RES1    0.0000
      7 C1         1.8909    3.9681    0.8711 C.ar      1 RES1    0.0000
      8 C2         3.1607    4.5384    0.8781 C.ar      1 RES1    0.0000
      9 H3         3.9279    3.9961    1.0199 H         1 RES1    0.0000
     10 C3         3.2975    5.9007    0.6755 C.ar      1 RES1    0.0000
     11 H4         4.1610    6.2965    0.6762 H         1 RES1    0.0000
     12 C4         2.1751    6.6896    0.4722 C.ar      1 RES1    0.0000
     13 H5         2.2684    7.6215    0.3123 H         1 RES1    0.0000
     14 C5         0.9257    6.1164    0.5037 C.ar      1 RES1    0.0000
     15 H6         0.1626    6.6688    0.3779 H         1 RES1    0.0000
     16 C6         0.7455    4.7559    0.7125 C.ar      1 RES1    0.0000
     17 C7        -0.6231    4.1482    0.8096 C.3       1 RES1    0.0000
     18 H7        -1.1905    4.5023    0.0803 H         1 RES1    0.0000
     19 H8        -1.0362    4.4088    1.6710 H         1 RES1    0.0000
     20 C8        -0.5714    2.6363    0.7153 C.3       1 RES1    0.0000
     21 H9        -1.4397    2.2487    0.9920 H         1 RES1    0.0000
     22 H10       -0.3898    2.3616   -0.2180 H         1 RES1    0.0000
     23 C9         2.5038    1.5702    0.5058 C.2       1 RES1    0.0000
@<TRIPOS>BOND
     1    1    3 1
     2    2   23 2
     3    3    7 1
     4    4    5 1
     5    6    4 1
     6    7    8 ar
     7    8    9 1
     8   10    8 ar
     9   11   10 1
    10   12   10 ar
    11   13   12 1
    12   14   12 ar
    13   15   14 1
    14   16    7 ar
    15   17   16 1
    16   18   17 1
    17   19   17 1
    18   20    1 1
    19   21   20 1
    20   22   20 1
    21   23    3 1
    22    4   23 1
    23   14   16 ar
    24   17   20 1
@<TRIPOS>SUBSTRUCTURE
     1 RES1 1

@<TRIPOS>CRYSIN
   7.3957   16.1200    7.6060  90.0000 113.3000  90.0000 231 1

