# MOL2 file generated by ConQuest
# Please check atom types

@<TRIPOS>MOLECULE
ZIWQAZ
    29    29     1
SMALL
NO_CHARGES
****
Generated from CSD

@<TRIPOS>ATOM
      1 C1         3.1357    3.8991    4.0211 C.3       1 RES1    0.0000
      2 H1         2.1895    4.0968    4.1837 H         1 RES1    0.0000
      3 H2         3.5819    4.7002    3.6765 H         1 RES1    0.0000
      4 H3         3.5613    3.6232    4.8596 H         1 RES1    0.0000
      5 C2         3.2500    2.7856    3.0100 C.2       1 RES1    0.0000
      6 C3         4.5910    2.2908    2.6248 C.ar      1 RES1    0.0000
      7 C4         5.7185    2.8885    3.2455 C.ar      1 RES1    0.0000
      8 H4         5.5808    3.5867    3.8744 H         1 RES1    0.0000
      9 C5         7.0028    2.4900    2.9661 C.ar      1 RES1    0.0000
     10 C6         7.2227    1.4699    2.0242 C.ar      1 RES1    0.0000
     11 C7         6.1478    0.8523    1.4095 C.ar      1 RES1    0.0000
     12 H5         6.3008    0.1486    0.7905 H         1 RES1    0.0000
     13 C8         4.8231    1.2590    1.6939 C.ar      1 RES1    0.0000
     14 C9         8.8200    0.0791    0.8986 C.3       1 RES1    0.0000
     15 H6         9.7876   -0.0659    0.8519 H         1 RES1    0.0000
     16 H7         8.4789    0.3002    0.0062 H         1 RES1    0.0000
     17 H8         8.3830   -0.7367    1.2217 H         1 RES1    0.0000
     18 C10        7.9736    4.0010    4.5483 C.3       1 RES1    0.0000
     19 H9         8.8508    4.2545    4.9044 H         1 RES1    0.0000
     20 H10        7.4182    3.6430    5.2721 H         1 RES1    0.0000
     21 H11        7.5374    4.7889    4.1618 H         1 RES1    0.0000
     22 N1         2.2132    2.2350    2.4744 N.2       1 RES1    0.0000
     23 N2         3.8006    0.6500    0.9883 N.3       1 RES1    0.0000
     24 H12        2.9953    0.7555    1.2706 H         1 RES1    0.0000
     25 H13        3.9827   -0.0507    0.5624 H         1 RES1    0.0000
     26 O1         1.0145    2.8307    2.9303 O.3       1 RES1    0.0000
     27 H14        0.4608    2.3628    2.5413 H         1 RES1    0.0000
     28 O2         8.1391    3.0077    3.5409 O.3       1 RES1    0.0000
     29 O3         8.5406    1.1611    1.7993 O.3       1 RES1    0.0000
@<TRIPOS>BOND
     1    1    2 1
     2    3    1 1
     3    4    1 1
     4    5    1 1
     5    6    5 1
     6    7    6 ar
     7    8    7 1
     8    9    7 ar
     9   10    9 ar
    10   11   10 ar
    11   12   11 1
    12   13    6 ar
    13   14   15 1
    14   16   14 1
    15   17   14 1
    16   18   19 1
    17   20   18 1
    18   21   18 1
    19   22    5 2
    20   23   13 1
    21   24   23 1
    22   25   23 1
    23   26   22 1
    24   27   26 1
    25   28    9 1
    26   29   10 1
    27   11   13 ar
    28   14   29 1
    29   18   28 1
@<TRIPOS>SUBSTRUCTURE
     1 RES1 1

@<TRIPOS>CRYSIN
   9.7354    5.0703   10.4692  90.0000  95.8330  90.0000   4 1

