# MOL2 file generated by ConQuest
# Please check atom types

@<TRIPOS>MOLECULE
ZIWRAA
    29    31     1
SMALL
NO_CHARGES
****
Generated from CSD

@<TRIPOS>ATOM
      1 C1        -0.0656    3.5704    6.1657 C.2       1 RES1    0.0000
      2 C2        -0.3462    4.2488    7.4671 C.3       1 RES1    0.0000
      3 H1        -0.3170    5.2201    7.3422 H         1 RES1    0.0000
      4 H2         0.3293    3.9840    8.1263 H         1 RES1    0.0000
      5 H3        -1.2346    3.9873    7.7866 H         1 RES1    0.0000
      6 C3         0.1123    2.1692    5.9311 C.2       1 RES1    0.0000
      7 C4         0.3595    2.0819    4.5942 C.2       1 RES1    0.0000
      8 C5         0.0817    1.1080    6.9578 C.ar      1 RES1    0.0000
      9 C6        -1.0600    0.8916    7.7314 C.ar      1 RES1    0.0000
     10 H4        -1.8410    1.4157    7.5979 H         1 RES1    0.0000
     11 C7        -1.0347   -0.1027    8.6994 C.ar      1 RES1    0.0000
     12 H5        -1.8256   -0.2528    9.2049 H         1 RES1    0.0000
     13 C8         1.1254   -0.6424    8.2217 C.ar      1 RES1    0.0000
     14 H6         1.8984   -1.1670    8.3943 H         1 RES1    0.0000
     15 C9         1.1940    0.3098    7.2119 C.ar      1 RES1    0.0000
     16 H7         1.9883    0.4150    6.7024 H         1 RES1    0.0000
     17 C10        0.5665    0.9843    3.6451 C.ar      1 RES1    0.0000
     18 C11        0.2641   -0.3385    3.9781 C.ar      1 RES1    0.0000
     19 H8        -0.0519   -0.5589    4.8464 H         1 RES1    0.0000
     20 C12        0.4344   -1.3255    3.0160 C.ar      1 RES1    0.0000
     21 H9         0.2393   -2.2234    3.2583 H         1 RES1    0.0000
     22 C13        1.1475    0.1830    1.4606 C.ar      1 RES1    0.0000
     23 H10        1.4517    0.3741    0.5813 H         1 RES1    0.0000
     24 C14        1.0297    1.2381    2.3546 C.ar      1 RES1    0.0000
     25 H11        1.2613    2.1205    2.0910 H         1 RES1    0.0000
     26 N1         0.0726    4.2689    5.0657 N.2       1 RES1    0.0000
     27 N2         0.0339   -0.8636    8.9658 N.ar      1 RES1    0.0000
     28 N3         0.8583   -1.0879    1.7643 N.ar      1 RES1    0.0000
     29 O1         0.3445    3.3284    4.0464 O.3       1 RES1    0.0000
@<TRIPOS>BOND
     1    1    2 1
     2    2    3 1
     3    4    2 1
     4    5    2 1
     5    6    1 1
     6    7    6 2
     7    8    6 1
     8    9    8 ar
     9   10    9 1
    10   11    9 ar
    11   12   11 1
    12   13   14 1
    13   15    8 ar
    14   16   15 1
    15   17    7 1
    16   18   17 ar
    17   19   18 1
    18   20   18 ar
    19   21   20 1
    20   22   23 1
    21   24   17 ar
    22   25   24 1
    23   26    1 2
    24   27   11 ar
    25   28   20 ar
    26   29    7 1
    27   13   15 ar
    28   13   27 ar
    29   22   24 ar
    30   22   28 ar
    31   26   29 1
@<TRIPOS>SUBSTRUCTURE
     1 RES1 1

@<TRIPOS>CRYSIN
   7.2521    8.5693   10.3402 108.6780 103.3650  94.0340   2 1

