# MOL2 file generated by ConQuest
# Please check atom types

@<TRIPOS>MOLECULE
ZIWWEH
    37    39     1
SMALL
NO_CHARGES
****
Generated from CSD

@<TRIPOS>ATOM
      1 O1         2.0307    0.1670    3.1566 O.3       1 RES1    0.0000
      2 O2         2.0228   -1.4513    0.0329 O.2       1 RES1    0.0000
      3 O3         5.1291   -1.0815   -0.1131 O.3       1 RES1    0.0000
      4 O4         7.1889   -0.0119    1.2955 O.3       1 RES1    0.0000
      5 O5        -3.5783    0.9105    7.0945 O.2       1 RES1    0.0000
      6 O6        -4.9600   -0.3340    5.9944 O.2       1 RES1    0.0000
      7 N1        -3.8696    0.2107    6.1342 N.pl3     1 RES1    0.0000
      8 C1         1.3487   -0.4652    2.1140 C.2       1 RES1    0.0000
      9 C2         2.3066   -0.8549    1.0529 C.2       1 RES1    0.0000
     10 C3         3.6090   -0.4056    1.5505 C.ar      1 RES1    0.0000
     11 C4         4.8915   -0.4573    1.0446 C.ar      1 RES1    0.0000
     12 C5         5.9214    0.1034    1.8158 C.ar      1 RES1    0.0000
     13 C6         5.6320    0.6441    3.0620 C.ar      1 RES1    0.0000
     14 C7         4.3753    0.7237    3.5822 C.ar      1 RES1    0.0000
     15 C8         3.3752    0.1710    2.7987 C.ar      1 RES1    0.0000
     16 C9        -0.9423   -0.3817    3.1463 C.ar      1 RES1    0.0000
     17 C10        0.0460   -0.6720    2.1366 C.2       1 RES1    0.0000
     18 C11       -2.2648   -0.8469    2.9591 C.ar      1 RES1    0.0000
     19 C12       -3.2054   -0.6759    3.9400 C.ar      1 RES1    0.0000
     20 C13       -2.8624    0.0119    5.0793 C.ar      1 RES1    0.0000
     21 C14       -1.5931    0.5248    5.2952 C.ar      1 RES1    0.0000
     22 C15        5.4280   -0.4891   -1.2112 C.3       1 RES1    0.0000
     23 C16       -0.6490    0.3221    4.3143 C.ar      1 RES1    0.0000
     24 C17        8.0870    0.8588    1.4806 C.3       1 RES1    0.0000
     25 H1         6.4251    0.9582    3.5575 H         1 RES1    0.0000
     26 H2         4.1688    1.0895    4.4624 H         1 RES1    0.0000
     27 H3        -0.3163   -1.0775    1.2955 H         1 RES1    0.0000
     28 H4        -2.4869   -1.3081    2.1386 H         1 RES1    0.0000
     29 H5        -4.1168   -1.0099    3.8249 H         1 RES1    0.0000
     30 H6        -1.3792    0.9821    6.1280 H         1 RES1    0.0000
     31 H7         6.3711   -0.5765   -1.4600 H         1 RES1    0.0000
     32 H8         5.3058    0.5089   -1.1310 H         1 RES1    0.0000
     33 H9         4.9277   -0.7356   -1.9741 H         1 RES1    0.0000
     34 H10        0.2688    0.6759    4.4418 H         1 RES1    0.0000
     35 H11        8.1021    1.2564    2.4060 H         1 RES1    0.0000
     36 H12        8.0470    1.6580    0.9048 H         1 RES1    0.0000
     37 H13        9.0249    0.5447    1.3983 H         1 RES1    0.0000
@<TRIPOS>BOND
     1    1    8 1
     2    2    9 2
     3    3   11 1
     4    4   12 1
     5    5    7 2
     6    6    7 2
     7    7   20 1
     8    8    9 1
     9    9   10 1
    10   10   11 ar
    11   11   12 ar
    12   12   13 ar
    13   13   14 ar
    14   14   15 ar
    15   15    1 1
    16   16   17 1
    17   17    8 2
    18   18   16 ar
    19   19   18 ar
    20   20   19 ar
    21   21   20 ar
    22   22    3 1
    23   23   16 ar
    24   24    4 1
    25   25   13 1
    26   26   14 1
    27   27   17 1
    28   28   18 1
    29   29   19 1
    30   30   21 1
    31   31   22 1
    32   32   22 1
    33   33   22 1
    34   34   23 1
    35   35   24 1
    36   36   24 1
    37   37   24 1
    38   10   15 ar
    39   21   23 ar
@<TRIPOS>SUBSTRUCTURE
     1 RES1 1

@<TRIPOS>CRYSIN
  18.0760    3.9761   21.0390  90.0000 102.2000  90.0000 231 1

