# MOL2 file generated by ConQuest
# Please check atom types

@<TRIPOS>MOLECULE
ZIXTIJ
    46    48     1
SMALL
NO_CHARGES
****
Generated from CSD

@<TRIPOS>ATOM
      1 C1         0.5438    0.2906   10.6244 C.3       1 RES1    0.0000
      2 N1        -0.0219    1.5803   11.0622 N.3       1 RES1    0.0000
      3 O1        -0.0695    2.3742    9.8550 O.3       1 RES1    0.0000
      4 C2         1.0129    1.9891    9.0051 C.3       1 RES1    0.0000
      5 C3         1.2142    0.5152    9.2523 C.3       1 RES1    0.0000
      6 C4         0.4427   -0.3991    8.3109 C.3       1 RES1    0.0000
      7 N2        -0.1248   -1.4431    9.1608 N.3       1 RES1    0.0000
      8 C5        -0.5566   -0.7407   10.3743 C.3       1 RES1    0.0000
      9 C6         0.7087    2.2892   12.1465 C.3       1 RES1    0.0000
     10 C7         0.4245    1.4862   13.3987 C.3       1 RES1    0.0000
     11 C8         2.2199    2.4184   11.9531 C.3       1 RES1    0.0000
     12 C9         0.0765    3.6753   12.2589 C.3       1 RES1    0.0000
     13 C10       -1.2215   -2.1505    8.5123 C.3       1 RES1    0.0000
     14 C11       -0.7779   -2.9742    7.3265 C.ar      1 RES1    0.0000
     15 C12       -1.3800   -2.8374    6.0968 C.ar      1 RES1    0.0000
     16 C13       -0.9810   -3.5951    5.0228 C.ar      1 RES1    0.0000
     17 C14        0.0164   -4.5038    5.1661 C.ar      1 RES1    0.0000
     18 C15        0.6267   -4.6661    6.3784 C.ar      1 RES1    0.0000
     19 C16        0.2241   -3.9084    7.4549 C.ar      1 RES1    0.0000
     20 C17       -0.7788   -1.6824   11.5349 C.3       1 RES1    0.0000
     21 H1         1.1933   -0.0443   11.2779 H         1 RES1    0.0000
     22 H2         1.8154    2.4854    9.2272 H         1 RES1    0.0000
     23 H3         0.7916    2.1524    8.0747 H         1 RES1    0.0000
     24 H4         2.1661    0.2831    9.2766 H         1 RES1    0.0000
     25 H5        -0.2605    0.0925    7.8571 H         1 RES1    0.0000
     26 H6         1.0348   -0.7832    7.6453 H         1 RES1    0.0000
     27 H7        -1.3946   -0.2689   10.1850 H         1 RES1    0.0000
     28 H8         0.7506    1.9627   14.1656 H         1 RES1    0.0000
     29 H9         0.8644    0.6350   13.3398 H         1 RES1    0.0000
     30 H10       -0.5219    1.3512   13.4848 H         1 RES1    0.0000
     31 H11        2.6043    2.8553   12.7167 H         1 RES1    0.0000
     32 H12        2.3984    2.9365   11.1648 H         1 RES1    0.0000
     33 H13        2.6061    1.5447   11.8562 H         1 RES1    0.0000
     34 H14        0.4263    4.1245   13.0315 H         1 RES1    0.0000
     35 H15       -0.8754    3.5866   12.3428 H         1 RES1    0.0000
     36 H16        0.2824    4.1849   11.4710 H         1 RES1    0.0000
     37 H17       -1.8828   -1.5050    8.2182 H         1 RES1    0.0000
     38 H18       -1.6460   -2.7346    9.1600 H         1 RES1    0.0000
     39 H19       -2.0687   -2.2222    5.9908 H         1 RES1    0.0000
     40 H20       -1.3955   -3.4866    4.1973 H         1 RES1    0.0000
     41 H21        0.2860   -5.0162    4.4383 H         1 RES1    0.0000
     42 H22        1.3126   -5.2870    6.4757 H         1 RES1    0.0000
     43 H23        0.6358   -4.0292    8.2802 H         1 RES1    0.0000
     44 H24       -1.4884   -2.2929   11.3203 H         1 RES1    0.0000
     45 H25       -1.0166   -1.1776   12.3159 H         1 RES1    0.0000
     46 H26        0.0264   -2.1759   11.7056 H         1 RES1    0.0000
@<TRIPOS>BOND
     1    1    2 1
     2    2    3 1
     3    3    4 1
     4    4    5 1
     5    5    1 1
     6    6    5 1
     7    7    6 1
     8    8    1 1
     9    9    2 1
    10   10    9 1
    11   11    9 1
    12   12    9 1
    13   13    7 1
    14   14   13 1
    15   15   14 ar
    16   16   15 ar
    17   17   16 ar
    18   18   17 ar
    19   19   14 ar
    20   20    8 1
    21   21    1 1
    22   22    4 1
    23   23    4 1
    24   24    5 1
    25   25    6 1
    26   26    6 1
    27   27    8 1
    28   28   10 1
    29   29   10 1
    30   30   10 1
    31   31   11 1
    32   32   11 1
    33   33   11 1
    34   34   12 1
    35   35   12 1
    36   36   12 1
    37   37   13 1
    38   38   13 1
    39   39   15 1
    40   40   16 1
    41   41   17 1
    42   42   18 1
    43   43   19 1
    44   44   20 1
    45   45   20 1
    46   46   20 1
    47    7    8 1
    48   18   19 ar
@<TRIPOS>SUBSTRUCTURE
     1 RES1 1

@<TRIPOS>CRYSIN
   9.1090    9.4360   19.0770  90.0000  90.0000  90.0000  19 1

