# MOL2 file generated by ConQuest
# Please check atom types

@<TRIPOS>MOLECULE
ZIXWIO
    21    22     1
SMALL
NO_CHARGES
****
Generated from CSD

@<TRIPOS>ATOM
      1 O1         7.6431    1.3727   -2.1529 O.2       1 RES1    0.0000
      2 O2         5.2916    2.4484    4.8097 O.2       1 RES1    0.0000
      3 O3         9.6933    0.8236   -1.7368 O.2       1 RES1    0.0000
      4 N1         7.4391    2.0562    3.9686 N.am      1 RES1    0.0000
      5 N2         8.5862    1.2233   -1.3765 N.pl3     1 RES1    0.0000
      6 N3         5.7582    2.2177    2.5456 N.am      1 RES1    0.0000
      7 C1         8.3706    1.5085    0.0407 C.ar      1 RES1    0.0000
      8 C2         4.4139    2.3729    2.0178 C.3       1 RES1    0.0000
      9 H1         4.4559    2.8114    1.1414 H         1 RES1    0.0000
     10 H2         3.8821    2.9208    2.6317 H         1 RES1    0.0000
     11 H3         3.9959    1.4907    1.9217 H         1 RES1    0.0000
     12 C3         7.0702    1.7809    0.4452 C.ar      1 RES1    0.0000
     13 H4         6.3474    1.8353   -0.1693 H         1 RES1    0.0000
     14 C4         6.9005    1.9663    1.8021 C.ar      1 RES1    0.0000
     15 C5         9.4567    1.4425    0.9047 C.ar      1 RES1    0.0000
     16 H5        10.3270    1.2674    0.5647 H         1 RES1    0.0000
     17 C6         9.2641    1.6337    2.2691 C.ar      1 RES1    0.0000
     18 H6         9.9928    1.6016    2.8789 H         1 RES1    0.0000
     19 C7         7.9732    1.8727    2.7056 C.ar      1 RES1    0.0000
     20 C8         6.0819    2.2565    3.8775 C.2       1 RES1    0.0000
     21 H7         7.8765    1.9994    4.7557 H         1 RES1    0.0000
@<TRIPOS>BOND
     1    1    5 2
     2    2   20 2
     3    3    5 2
     4    4   19 1
     5    5    7 1
     6    6    8 1
     7    7   12 ar
     8    8    9 1
     9   10    8 1
    10   11    8 1
    11   12   13 1
    12   14    6 1
    13   15    7 ar
    14   16   15 1
    15   17   15 ar
    16   18   17 1
    17   19   14 ar
    18   20    4 1
    19   21    4 1
    20    6   20 1
    21   12   14 ar
    22   17   19 ar
@<TRIPOS>SUBSTRUCTURE
     1 RES1 1

@<TRIPOS>CRYSIN
  14.7888   14.7888   14.9785  90.0000  90.0000  90.0000  88 1

