# MOL2 file generated by ConQuest
# Please check atom types

@<TRIPOS>MOLECULE
ZIXZIR
    44    45     1
SMALL
NO_CHARGES
****
Generated from CSD

@<TRIPOS>ATOM
      1 O1         0.5742    9.5631    1.8479 O.2       1 RES1    0.0000
      2 O2         0.0140    7.7858    2.9299 O.2       1 RES1    0.0000
      3 O3         1.7529    8.0077    6.8884 O.3       1 RES1    0.0000
      4 O4         0.1469    9.4541    7.4585 O.2       1 RES1    0.0000
      5 O5         4.9787   11.6493   10.8934 O.3       1 RES1    0.0000
      6 O6         2.6813   12.6920   10.5251 O.3       1 RES1    0.0000
      7 N1         2.5181    7.7441    4.1822 N.3       1 RES1    0.0000
      8 N2         0.8107    8.6616    2.6423 N.pl3     1 RES1    0.0000
      9 N3         4.1957    9.1337    3.7249 N.2       1 RES1    0.0000
     10 C1         3.8013    8.0834    4.4366 C.2       1 RES1    0.0000
     11 C2         3.1264    9.4815    2.9804 C.2       1 RES1    0.0000
     12 H1         3.1033   10.1858    2.3745 H         1 RES1    0.0000
     13 C3         2.0915    8.6531    3.2478 C.2       1 RES1    0.0000
     14 C4         4.6997    7.3555    5.3701 C.3       1 RES1    0.0000
     15 H2         4.2164    6.6389    5.7867 H         1 RES1    0.0000
     16 H3         5.0187    7.9602    6.0440 H         1 RES1    0.0000
     17 H4         5.4463    6.9981    4.8831 H         1 RES1    0.0000
     18 C5         1.7374    6.7375    4.8972 C.3       1 RES1    0.0000
     19 H5         2.3411    6.1033    5.3140 H         1 RES1    0.0000
     20 H6         1.1871    6.2512    4.2631 H         1 RES1    0.0000
     21 C6         0.8512    7.3488    5.9562 C.3       1 RES1    0.0000
     22 H7         0.2592    8.0133    5.5449 H         1 RES1    0.0000
     23 C7         1.2766    9.0588    7.5766 C.2       1 RES1    0.0000
     24 C8         2.2927    9.6654    8.4607 C.ar      1 RES1    0.0000
     25 C9         3.5238    9.0958    8.6869 C.ar      1 RES1    0.0000
     26 H8         3.7358    8.2796    8.2931 H         1 RES1    0.0000
     27 C10        4.4494    9.7299    9.4977 C.ar      1 RES1    0.0000
     28 H9         5.2832    9.3413    9.6387 H         1 RES1    0.0000
     29 C11        4.1459   10.9261   10.0951 C.ar      1 RES1    0.0000
     30 C12        2.8886   11.5109    9.8884 C.ar      1 RES1    0.0000
     31 C13        1.9767   10.8797    9.0714 C.ar      1 RES1    0.0000
     32 H10        1.1432   11.2654    8.9263 H         1 RES1    0.0000
     33 C14        6.2592   11.1166   11.1792 C.3       1 RES1    0.0000
     34 H11        6.7394   11.7233   11.7471 H         1 RES1    0.0000
     35 H12        6.7447   10.9924   10.3598 H         1 RES1    0.0000
     36 H13        6.1619   10.2711   11.6240 H         1 RES1    0.0000
     37 C15        1.4506   13.3688   10.2662 C.3       1 RES1    0.0000
     38 H14        1.4261   14.1887   10.7644 H         1 RES1    0.0000
     39 H15        0.7161   12.8105   10.5335 H         1 RES1    0.0000
     40 H16        1.3826   13.5612    9.3287 H         1 RES1    0.0000
     41 C16        0.0283    6.3119    6.6679 C.3       1 RES1    0.0000
     42 H17       -0.5282    6.7394    7.3213 H         1 RES1    0.0000
     43 H18        0.6108    5.6853    7.1037 H         1 RES1    0.0000
     44 H19       -0.5218    5.8484    6.0330 H         1 RES1    0.0000
@<TRIPOS>BOND
     1    1    8 2
     2    2    8 2
     3    3   21 1
     4    4   23 2
     5    5   29 1
     6    6   30 1
     7    7   10 1
     8    8   13 1
     9    9   10 2
    10   10   14 1
    11   11    9 1
    12   12   11 1
    13   13    7 1
    14   14   15 1
    15   16   14 1
    16   17   14 1
    17   18    7 1
    18   19   18 1
    19   20   18 1
    20   21   18 1
    21   22   21 1
    22   23    3 1
    23   24   23 1
    24   25   24 ar
    25   26   25 1
    26   27   25 ar
    27   28   27 1
    28   29   27 ar
    29   30   29 ar
    30   31   24 ar
    31   32   31 1
    32   33    5 1
    33   34   33 1
    34   35   33 1
    35   36   33 1
    36   37    6 1
    37   38   37 1
    38   39   37 1
    39   40   37 1
    40   41   21 1
    41   42   41 1
    42   43   41 1
    43   44   41 1
    44   11   13 2
    45   30   31 ar
@<TRIPOS>SUBSTRUCTURE
     1 RES1 1

@<TRIPOS>CRYSIN
   8.1613    9.4787   22.0720  90.0000  95.0590  90.0000  14 1

