# MOL2 file generated by ConQuest
# Please check atom types

@<TRIPOS>MOLECULE
ZIXZOX
    38    39     1
SMALL
NO_CHARGES
****
Generated from CSD

@<TRIPOS>ATOM
      1 O1         0.4188   -2.3056    1.4387 O.2       1 RES1    0.0000
      2 O2        -1.1785   -1.1231    2.2728 O.2       1 RES1    0.0000
      3 O3        -0.2420    2.6024    4.1516 O.3       1 RES1    0.0000
      4 O4        -0.4132    1.5651    6.1389 O.2       1 RES1    0.0000
      5 O5         1.9198    3.6578    9.9140 O.2       1 RES1    0.0000
      6 O6         3.1290    5.4058    9.6291 O.2       1 RES1    0.0000
      7 N1         0.2816    1.2144    1.7123 N.3       1 RES1    0.0000
      8 N2        -0.0646   -1.2312    1.7729 N.pl3     1 RES1    0.0000
      9 N3         2.4143    1.2679    1.0560 N.2       1 RES1    0.0000
     10 N4         2.4129    4.5162    9.2067 N.pl3     1 RES1    0.0000
     11 C1         1.3136    3.4688    1.3689 C.3       1 RES1    0.0000
     12 H1         2.1760    3.8101    1.1182 H         1 RES1    0.0000
     13 H2         1.0807    3.7967    2.2409 H         1 RES1    0.0000
     14 H3         0.6573    3.7590    0.7314 H         1 RES1    0.0000
     15 C2         1.3577    1.9864    1.3935 C.2       1 RES1    0.0000
     16 C3         2.0108   -0.0198    1.1409 C.2       1 RES1    0.0000
     17 H4         2.5429   -0.7575    0.9496 H         1 RES1    0.0000
     18 C4         0.7188   -0.0792    1.5437 C.2       1 RES1    0.0000
     19 C5        -1.0382    1.7083    2.1008 C.3       1 RES1    0.0000
     20 H5        -1.7158    1.1489    1.6897 H         1 RES1    0.0000
     21 H6        -1.1493    2.6081    1.7566 H         1 RES1    0.0000
     22 C6        -1.2601    1.7265    3.5912 C.3       1 RES1    0.0000
     23 H7        -1.1603    0.8221    3.9553 H         1 RES1    0.0000
     24 C7        -2.6217    2.2743    3.9399 C.3       1 RES1    0.0000
     25 H8        -2.7380    2.2593    4.8932 H         1 RES1    0.0000
     26 H9        -3.2988    1.7342    3.5263 H         1 RES1    0.0000
     27 H10       -2.6936    3.1773    3.6223 H         1 RES1    0.0000
     28 C8         0.0563    2.4312    5.4483 C.2       1 RES1    0.0000
     29 C9         1.0266    3.4500    5.9302 C.ar      1 RES1    0.0000
     30 C10        1.6324    4.3752    5.0863 C.ar      1 RES1    0.0000
     31 H11        1.4680    4.3422    4.1720 H         1 RES1    0.0000
     32 C11        2.4700    5.3354    5.5938 C.ar      1 RES1    0.0000
     33 H12        2.8732    5.9434    5.0183 H         1 RES1    0.0000
     34 C12        2.7213    5.4090    6.9469 C.ar      1 RES1    0.0000
     35 H13        3.2659    6.0763    7.2969 H         1 RES1    0.0000
     36 C13        2.1443    4.4669    7.7637 C.ar      1 RES1    0.0000
     37 C14        1.2980    3.4933    7.2831 C.ar      1 RES1    0.0000
     38 H14        0.9150    2.8732    7.8612 H         1 RES1    0.0000
@<TRIPOS>BOND
     1    1    8 2
     2    2    8 2
     3    3   22 1
     4    4   28 2
     5    5   10 2
     6    6   10 2
     7    7   15 1
     8    8   18 1
     9    9   15 2
    10   10   36 1
    11   11   12 1
    12   13   11 1
    13   14   11 1
    14   15   11 1
    15   16    9 1
    16   17   16 1
    17   18    7 1
    18   19    7 1
    19   20   19 1
    20   21   19 1
    21   22   19 1
    22   23   22 1
    23   24   22 1
    24   25   24 1
    25   26   24 1
    26   27   24 1
    27   28    3 1
    28   29   28 1
    29   30   29 ar
    30   31   30 1
    31   32   30 ar
    32   33   32 1
    33   34   32 ar
    34   35   34 1
    35   36   34 ar
    36   37   29 ar
    37   38   37 1
    38   16   18 2
    39   36   37 ar
@<TRIPOS>SUBSTRUCTURE
     1 RES1 1

@<TRIPOS>CRYSIN
   7.2060    7.5973   14.9470 101.1930  93.3810 108.1860   2 1

