# MOL2 file generated by ConQuest
# Please check atom types

@<TRIPOS>MOLECULE
ZIZBIV
    37    39     1
SMALL
NO_CHARGES
****
Generated from CSD

@<TRIPOS>ATOM
      1 O1         4.6737   12.7433    4.6723 O.3       1 RES1    0.0000
      2 O2         6.1260   12.7885    6.3892 O.2       1 RES1    0.0000
      3 O3        11.6399    9.2255    6.0679 O.2       1 RES1    0.0000
      4 O4        12.7026   10.7510    7.1533 O.2       1 RES1    0.0000
      5 N1         7.9851   14.1845    4.8046 N.pl3     1 RES1    0.0000
      6 N2        11.7639   10.3840    6.4538 N.pl3     1 RES1    0.0000
      7 C1         8.4332   15.4860    4.2934 C.3       1 RES1    0.0000
      8 H1         9.3719   15.6429    4.5659 H         1 RES1    0.0000
      9 H2         7.8755   16.2053    4.6841 H         1 RES1    0.0000
     10 C2         8.3316   15.5302    2.7922 C.ar      1 RES1    0.0000
     11 C3         9.2485   16.1915    1.9976 C.ar      1 RES1    0.0000
     12 H3         9.9937   16.6282    2.3932 H         1 RES1    0.0000
     13 C4         9.0780   16.2156    0.6188 C.ar      1 RES1    0.0000
     14 H4         9.7069   16.6736    0.0727 H         1 RES1    0.0000
     15 C5         8.0002   15.5787    0.0390 C.ar      1 RES1    0.0000
     16 H5         7.8917   15.5991   -0.9047 H         1 RES1    0.0000
     17 C6         7.0770   14.9126    0.8218 C.ar      1 RES1    0.0000
     18 H6         6.3361   14.4745    0.4184 H         1 RES1    0.0000
     19 C7         7.2378   14.8858    2.2049 C.ar      1 RES1    0.0000
     20 C8         6.3369   14.1628    3.0798 C.2       1 RES1    0.0000
     21 H7         5.4609   13.9513    2.7796 H         1 RES1    0.0000
     22 C9         6.7242   13.7886    4.3085 C.2       1 RES1    0.0000
     23 C10        5.8393   13.0518    5.2521 C.2       1 RES1    0.0000
     24 C11        3.7257   12.0330    5.4906 C.3       1 RES1    0.0000
     25 H8         2.8295   12.1218    5.1041 H         1 RES1    0.0000
     26 H9         3.7306   12.4069    6.3961 H         1 RES1    0.0000
     27 H10        3.9722   11.0849    5.5273 H         1 RES1    0.0000
     28 C12        8.9144   13.2320    5.2149 C.ar      1 RES1    0.0000
     29 C13        8.7297   11.8706    4.9275 C.ar      1 RES1    0.0000
     30 H11        7.9618   11.5908    4.4429 H         1 RES1    0.0000
     31 C14        9.6527   10.9380    5.3415 C.ar      1 RES1    0.0000
     32 H12        9.5232   10.0167    5.1488 H         1 RES1    0.0000
     33 C15       10.7716   11.3556    6.0421 C.ar      1 RES1    0.0000
     34 C16       10.9779   12.6898    6.3435 C.ar      1 RES1    0.0000
     35 H13       11.7484   12.9582    6.8297 H         1 RES1    0.0000
     36 C17       10.0575   13.6235    5.9336 C.ar      1 RES1    0.0000
     37 H14       10.1947   14.5418    6.1374 H         1 RES1    0.0000
@<TRIPOS>BOND
     1    1   23 1
     2    2   23 2
     3    3    6 2
     4    4    6 2
     5    5    7 1
     6    6   33 1
     7    7    8 1
     8    9    7 1
     9   10    7 1
    10   11   10 ar
    11   12   11 1
    12   13   11 ar
    13   14   13 1
    14   15   13 ar
    15   16   15 1
    16   17   15 ar
    17   18   17 1
    18   19   10 ar
    19   20   19 1
    20   21   20 1
    21   22    5 1
    22   23   22 1
    23   24    1 1
    24   25   24 1
    25   26   24 1
    26   27   24 1
    27   28    5 1
    28   29   28 ar
    29   30   29 1
    30   31   29 ar
    31   32   31 1
    32   33   31 ar
    33   34   33 ar
    34   35   34 1
    35   36   28 ar
    36   37   36 1
    37   17   19 ar
    38   20   22 2
    39   34   36 ar
@<TRIPOS>SUBSTRUCTURE
     1 RES1 1

@<TRIPOS>CRYSIN
  11.5613   15.6633    7.9892  90.0000  91.8240  90.0000  14 1

