# MOL2 file generated by ConQuest
# Please check atom types

@<TRIPOS>MOLECULE
ZIZCES
    31    32     1
SMALL
NO_CHARGES
****
Generated from CSD

@<TRIPOS>ATOM
      1 C1         4.1292   10.4849    3.5106 C.ar      1 RES1    0.0000
      2 C2         3.9612   10.2209    4.8667 C.ar      1 RES1    0.0000
      3 H1         3.3531    9.5784    5.1541 H         1 RES1    0.0000
      4 C3         4.7162   10.9344    5.7758 C.ar      1 RES1    0.0000
      5 N1         4.5430   10.6446    7.2039 N.pl3     1 RES1    0.0000
      6 O1         3.9612    9.6274    7.5180 O.2       1 RES1    0.0000
      7 O2         4.9981   11.4243    8.0100 O.2       1 RES1    0.0000
      8 C4         5.6319   11.8873    5.4011 C.ar      1 RES1    0.0000
      9 H2         6.1296   12.3507    6.0355 H         1 RES1    0.0000
     10 C5         5.7887   12.1344    4.0547 C.ar      1 RES1    0.0000
     11 H3         6.4049   12.7723    3.7730 H         1 RES1    0.0000
     12 C6         5.0388   11.4441    3.1133 C.ar      1 RES1    0.0000
     13 H4         5.1495   11.6296    2.2087 H         1 RES1    0.0000
     14 C7         3.2810    9.7229    2.5483 C.2       1 RES1    0.0000
     15 C8         2.3901   10.4061    1.7265 C.2       1 RES1    0.0000
     16 C9         1.4204    9.7074    0.9349 C.2       1 RES1    0.0000
     17 N2         1.4856    8.3440    1.0322 N.am      1 RES1    0.0000
     18 H5         0.8315    7.8799    0.6098 H         1 RES1    0.0000
     19 C10        2.3931    7.6488    1.7599 C.2       1 RES1    0.0000
     20 C11        3.3307    8.3125    2.5228 C.2       1 RES1    0.0000
     21 C12        2.3577   11.8329    1.6438 C.1       1 RES1    0.0000
     22 N3         2.3259   12.9643    1.5265 N.1       1 RES1    0.0000
     23 O3         0.5568   10.2574    0.2209 O.2       1 RES1    0.0000
     24 C13        2.2851    6.1621    1.6893 C.3       1 RES1    0.0000
     25 H6         1.5622    5.9215    1.1044 H         1 RES1    0.0000
     26 H7         2.1168    5.8114    2.5674 H         1 RES1    0.0000
     27 H8         3.1057    5.7976    1.3503 H         1 RES1    0.0000
     28 C14        4.3748    7.5254    3.2644 C.3       1 RES1    0.0000
     29 H9         3.9757    7.1072    4.0305 H         1 RES1    0.0000
     30 H10        5.0762    8.1139    3.5501 H         1 RES1    0.0000
     31 H11        4.7386    6.8508    2.6853 H         1 RES1    0.0000
@<TRIPOS>BOND
     1    1    2 ar
     2    2    3 1
     3    4    2 ar
     4    5    4 1
     5    6    5 2
     6    7    5 2
     7    8    4 ar
     8    9    8 1
     9   10    8 ar
    10   11   10 1
    11   12    1 ar
    12   13   12 1
    13   14    1 1
    14   15   14 2
    15   16   15 1
    16   17   16 1
    17   18   17 1
    18   19   17 1
    19   20   14 1
    20   21   15 1
    21   22   21 3
    22   23   16 2
    23   24   19 1
    24   25   24 1
    25   26   24 1
    26   27   24 1
    27   28   20 1
    28   29   28 1
    29   30   28 1
    30   31   28 1
    31   10   12 ar
    32   19   20 2
@<TRIPOS>SUBSTRUCTURE
     1 RES1 1

@<TRIPOS>CRYSIN
   5.7992   17.2087   12.8130  90.0000  90.8770  90.0000  14 1

