# MOL2 file generated by ConQuest
# Please check atom types

@<TRIPOS>MOLECULE
ZIZRAD01
    18    18     1
SMALL
NO_CHARGES
****
Generated from CSD

@<TRIPOS>ATOM
      1 N1         7.6450    2.0389    4.5389 N.3       1 RES1    0.0000
      2 N2         8.6321    2.7953    4.0651 N.2       1 RES1    0.0000
      3 N3         9.2985    5.0985    4.2092 N.pl3     1 RES1    0.0000
      4 O1         5.3430    1.0774    5.7891 O.2       1 RES1    0.0000
      5 C1         8.4163    4.0053    4.5397 C.2       1 RES1    0.0000
      6 C2         7.2719    4.0495    5.3339 C.2       1 RES1    0.0000
      7 C3         6.7986    2.7669    5.2992 C.2       1 RES1    0.0000
      8 O2         9.1351    6.1217    4.8339 O.2       1 RES1    0.0000
      9 N4         6.6925    5.2044    6.0027 N.pl3     1 RES1    0.0000
     10 N5         5.5660    2.2707    5.8527 N.pl3     1 RES1    0.0000
     11 O3        10.1258    4.9276    3.3463 O.2       1 RES1    0.0000
     12 O4         4.8292    3.1105    6.3265 O.2       1 RES1    0.0000
     13 O5         6.1823    6.0650    5.3094 O.2       1 RES1    0.0000
     14 O6         6.7986    5.2119    7.2139 O.2       1 RES1    0.0000
     15 C4         7.6057    0.6154    4.1744 C.3       1 RES1    0.0000
     16 H1         6.8010    0.4336    3.6820 H         1 RES1    0.0000
     17 H2         7.6212    0.0801    4.9712 H         1 RES1    0.0000
     18 H3         8.3674    0.4028    3.6311 H         1 RES1    0.0000
@<TRIPOS>BOND
     1    1    2 1
     2    2    5 2
     3    3    5 1
     4    4   10 2
     5    5    6 1
     6    6    7 2
     7    7    1 1
     8    8    3 2
     9    9    6 1
    10   10    7 1
    11   11    3 2
    12   12   10 2
    13   13    9 2
    14   14    9 2
    15   15    1 1
    16   16   15 1
    17   17   15 1
    18   18   15 1
@<TRIPOS>SUBSTRUCTURE
     1 RES1 1

@<TRIPOS>CRYSIN
  11.9211    8.3391    8.4760  90.0000  90.0000  90.0000  33 1

