# MOL2 file generated by ConQuest
# Please check atom types

@<TRIPOS>MOLECULE
ZOBCEY
    32    32     1
SMALL
NO_CHARGES
****
Generated from CSD

@<TRIPOS>ATOM
      1 O1         5.2971    3.5240    6.3986 O.2       1 RES1    0.0000
      2 O2         5.9811    4.9697    7.8215 O.2       1 RES1    0.0000
      3 O3         5.9281    6.5840    5.6597 O.2       1 RES1    0.0000
      4 O4         4.2574    7.8097    6.1895 O.2       1 RES1    0.0000
      5 O5         2.1446    6.2959    7.4352 O.2       1 RES1    0.0000
      6 O6         3.4184    5.1588    8.7447 O.2       1 RES1    0.0000
      7 O7         2.4119    1.1451    3.5156 O.2       1 RES1    0.0000
      8 O8         0.9191    0.0103    4.6195 O.2       1 RES1    0.0000
      9 O9         1.2303    1.7081    6.8983 O.2       1 RES1    0.0000
     10 O10       -0.8154    2.2462    6.4270 O.2       1 RES1    0.0000
     11 O11       -0.9823    3.6369    4.0933 O.2       1 RES1    0.0000
     12 O12       -0.5892    1.8218    2.9539 O.2       1 RES1    0.0000
     13 N1         1.8155    4.0284    3.3685 N.ar      1 RES1    0.0000
     14 N2         2.8417    5.6485    2.0254 N.3       1 RES1    0.0000
     15 N3         3.4709    5.5430    4.2173 N.ar      1 RES1    0.0000
     16 N4         5.1428    4.5144    7.0028 N.pl3     1 RES1    0.0000
     17 N5         2.4534    3.9301    5.6703 N.ar      1 RES1    0.0000
     18 N6         4.8509    6.7614    6.1310 N.pl3     1 RES1    0.0000
     19 N7         3.1542    5.8223    7.7028 N.pl3     1 RES1    0.0000
     20 N8         1.4561    1.0351    4.2492 N.pl3     1 RES1    0.0000
     21 N9         0.3687    2.0695    6.1541 N.pl3     1 RES1    0.0000
     22 N10       -0.3722    2.6106    3.8452 N.pl3     1 RES1    0.0000
     23 C1         2.0772    5.3722    0.7708 C.3       1 RES1    0.0000
     24 C2         2.6969    5.0562    3.2020 C.ar      1 RES1    0.0000
     25 C3         4.0789    5.4946    6.5315 C.3       1 RES1    0.0000
     26 C4         3.2739    4.9565    5.3673 C.ar      1 RES1    0.0000
     27 C5         0.8150    2.3518    4.7259 C.3       1 RES1    0.0000
     28 C6         1.7794    3.5453    4.6054 C.ar      1 RES1    0.0000
     29 C7         2.6243    6.4220   -0.2250 C.3       1 RES1    0.0000
     30 C8         2.3676    3.9617    0.2711 C.3       1 RES1    0.0000
     31 C9         0.5901    5.6097    1.0100 C.3       1 RES1    0.0000
     32 H1         3.4302    6.2827    2.0378 H         1 RES1    0.0000
@<TRIPOS>BOND
     1    1   16 2
     2    2   16 2
     3    3   18 2
     4    4   18 2
     5    5   19 2
     6    6   19 2
     7    7   20 2
     8    8   20 2
     9    9   21 2
    10   10   21 2
    11   11   22 2
    12   12   22 2
    13   13   24 ar
    14   14   23 1
    15   15   24 ar
    16   16   25 1
    17   17   26 ar
    18   18   25 1
    19   19   25 1
    20   20   27 1
    21   21   27 1
    22   22   27 1
    23   23   29 1
    24   24   14 1
    25   25   26 1
    26   26   15 ar
    27   27   28 1
    28   28   13 ar
    29   30   23 1
    30   31   23 1
    31   32   14 1
    32   17   28 ar
@<TRIPOS>SUBSTRUCTURE
     1 RES1 1

@<TRIPOS>CRYSIN
  14.0860    7.3310   18.8920  90.0000 110.2900  90.0000  14 1

