# MOL2 file generated by ConQuest
# Please check atom types

@<TRIPOS>MOLECULE
ZODLOV
    26    25     1
SMALL
NO_CHARGES
****
Generated from CSD

@<TRIPOS>ATOM
      1 C1        11.4974    6.5280   11.9613 C.3       1 RES1    0.0000
      2 C2        11.0692    7.8162   11.2767 C.3       1 RES1    0.0000
      3 H1        10.5744    8.3984   11.9069 H         1 RES1    0.0000
      4 H2        11.8580    8.3109   10.9399 H         1 RES1    0.0000
      5 N1        10.2090    7.4041   10.1722 N.2       1 RES1    0.0000
      6 C3         9.8063    8.2590    9.3563 C.2       1 RES1    0.0000
      7 H3        10.0622    9.1711    9.4281 H         1 RES1    0.0000
      8 C4         8.8957    7.7856    8.2497 C.3       1 RES1    0.0000
      9 N2        12.5364    5.7354   11.1747 N.pl3     1 RES1    0.0000
     10 O1        12.7641    6.1087   10.0472 O.2       1 RES1    0.0000
     11 O2        13.0423    4.8001   11.7681 O.2       1 RES1    0.0000
     12 N3        10.2744    5.6481   12.1612 N.pl3     1 RES1    0.0000
     13 O3         9.3892    6.1695   12.8081 O.2       1 RES1    0.0000
     14 O4        10.2526    4.5574   11.6293 O.2       1 RES1    0.0000
     15 N4        12.1463    6.7723   13.3058 N.pl3     1 RES1    0.0000
     16 O5        13.0018    7.6456   13.2949 O.2       1 RES1    0.0000
     17 O6        11.8126    6.0841   14.2430 O.2       1 RES1    0.0000
     18 N5         8.7968    6.2668    8.2552 N.pl3     1 RES1    0.0000
     19 O7         8.0885    5.7997    9.1195 O.2       1 RES1    0.0000
     20 O8         9.4800    5.6715    7.4516 O.2       1 RES1    0.0000
     21 N6         7.4906    8.3600    8.3620 N.pl3     1 RES1    0.0000
     22 O9         7.4176    9.4072    8.9665 O.2       1 RES1    0.0000
     23 O10        6.5945    7.7526    7.8157 O.2       1 RES1    0.0000
     24 N7         9.4282    8.2053    6.8775 N.pl3     1 RES1    0.0000
     25 O11       10.6190    8.4269    6.8419 O.2       1 RES1    0.0000
     26 O12        8.6380    8.2644    5.9617 O.2       1 RES1    0.0000
@<TRIPOS>BOND
     1    1    2 1
     2    2    3 1
     3    4    2 1
     4    5    2 1
     5    6    5 2
     6    7    6 1
     7    8    6 1
     8    9    1 1
     9   10    9 2
    10   11    9 2
    11   12    1 1
    12   13   12 2
    13   14   12 2
    14   15    1 1
    15   16   15 2
    16   17   15 2
    17   18    8 1
    18   19   18 2
    19   20   18 2
    20   21    8 1
    21   22   21 2
    22   23   21 2
    23   24    8 1
    24   25   24 2
    25   26   24 2
@<TRIPOS>SUBSTRUCTURE
     1 RES1 1

@<TRIPOS>CRYSIN
  12.5230   11.3630   16.5580  90.0000  90.0000  90.0000  61 1

