# MOL2 file generated by ConQuest
# Please check atom types

@<TRIPOS>MOLECULE
ZOGLAI
    37    38     1
SMALL
NO_CHARGES
****
Generated from CSD

@<TRIPOS>ATOM
      1 O1         5.5831    5.4908    3.2400 O.2       1 RES1    0.0000
      2 O2         4.5620    4.9580    1.4200 O.2       1 RES1    0.0000
      3 O3        -0.6605    8.1557    3.0893 O.2       1 RES1    0.0000
      4 O4        -0.2804    6.0390    2.6103 O.2       1 RES1    0.0000
      5 O5         1.6256    9.3743    3.5709 O.2       1 RES1    0.0000
      6 O6         2.3756    9.5481    1.5336 O.2       1 RES1    0.0000
      7 O7         2.1213    6.9165   -0.0247 O.2       1 RES1    0.0000
      8 O8         0.1984    7.9164    0.2099 O.2       1 RES1    0.0000
      9 N1         4.7595    5.7121    2.3658 N.pl3     1 RES1    0.0000
     10 N2         0.0186    7.2241    2.6868 N.pl3     1 RES1    0.0000
     11 N3         1.8185    8.9381    2.4522 N.pl3     1 RES1    0.0000
     12 N4         1.2362    7.4544    0.6223 N.pl3     1 RES1    0.0000
     13 C1         3.9071    6.9706    2.4522 C.3       1 RES1    0.0000
     14 C2         2.4566    6.4906    2.6794 C.3       1 RES1    0.0000
     15 C3         2.2172    6.1779    4.1512 C.2       1 RES1    0.0000
     16 C4         2.8796    6.7840    5.1267 C.2       1 RES1    0.0000
     17 C5         3.9006    7.8032    4.8205 C.ar      1 RES1    0.0000
     18 C6         4.3636    8.6692    5.7860 C.ar      1 RES1    0.0000
     19 C7         5.3120    9.6278    5.4749 C.ar      1 RES1    0.0000
     20 C8         5.8216    9.7179    4.1858 C.ar      1 RES1    0.0000
     21 C9         5.3837    8.8712    3.1881 C.ar      1 RES1    0.0000
     22 C10        4.4167    7.9074    3.5042 C.ar      1 RES1    0.0000
     23 C11        1.4393    7.4930    2.1583 C.3       1 RES1    0.0000
     24 C12        2.5777    6.4417    6.5516 C.3       1 RES1    0.0000
     25 C13        5.9557    8.9986    1.7904 C.3       1 RES1    0.0000
     26 H1         3.9472    7.4377    1.5706 H         1 RES1    0.0000
     27 H2         2.3355    5.6413    2.1658 H         1 RES1    0.0000
     28 H3         1.5679    5.5217    4.3784 H         1 RES1    0.0000
     29 H4         4.0292    8.6087    6.6726 H         1 RES1    0.0000
     30 H5         5.6175   10.2262    6.1466 H         1 RES1    0.0000
     31 H6         6.4802   10.3729    3.9882 H         1 RES1    0.0000
     32 H7         2.2237    7.2318    7.0109 H         1 RES1    0.0000
     33 H8         3.3985    6.1458    6.9986 H         1 RES1    0.0000
     34 H9         1.9126    5.7224    6.5812 H         1 RES1    0.0000
     35 H10        5.2412    9.2431    1.1656 H         1 RES1    0.0000
     36 H11        6.3479    8.1429    1.5187 H         1 RES1    0.0000
     37 H12        6.6479    9.6922    1.7830 H         1 RES1    0.0000
@<TRIPOS>BOND
     1    1    9 2
     2    2    9 2
     3    3   10 2
     4    4   10 2
     5    5   11 2
     6    6   11 2
     7    7   12 2
     8    8   12 2
     9    9   13 1
    10   10   23 1
    11   11   23 1
    12   12   23 1
    13   13   14 1
    14   14   15 1
    15   15   16 2
    16   16   17 1
    17   17   18 ar
    18   18   19 ar
    19   19   20 ar
    20   20   21 ar
    21   21   22 ar
    22   22   13 1
    23   23   14 1
    24   24   16 1
    25   25   21 1
    26   26   13 1
    27   27   14 1
    28   28   15 1
    29   29   18 1
    30   30   19 1
    31   31   20 1
    32   32   24 1
    33   33   24 1
    34   34   24 1
    35   35   25 1
    36   36   25 1
    37   37   25 1
    38   17   22 ar
@<TRIPOS>SUBSTRUCTURE
     1 RES1 1

@<TRIPOS>CRYSIN
   9.3160   12.8680   24.6950  90.0000  90.0000  90.0000  61 1

