# MOL2 file generated by ConQuest
# Please check atom types

@<TRIPOS>MOLECULE
ZOGLOW
    35    38     1
SMALL
NO_CHARGES
****
Generated from CSD

@<TRIPOS>ATOM
      1 O1         3.9791    0.6694    2.5550 O.3       1 RES1    0.0000
      2 O2         6.0360    0.3551    1.8239 O.3       1 RES1    0.0000
      3 O3         5.1547    1.7392   -1.3778 O.3       1 RES1    0.0000
      4 N1         4.8690   -0.3581    2.2229 N.3       1 RES1    0.0000
      5 N2         5.4573   -2.1577    0.8190 N.pl3     1 RES1    0.0000
      6 O4         2.7988   -2.6261    0.4634 O.2       1 RES1    0.0000
      7 O5         2.6136   -1.6742    2.4013 O.2       1 RES1    0.0000
      8 O6         5.5955   -2.9132    1.7607 O.2       1 RES1    0.0000
      9 C1         4.1973   -0.2312   -0.2726 C.3       1 RES1    0.0000
     10 C2         4.4058   -1.0577    0.9962 C.3       1 RES1    0.0000
     11 O7         6.0626   -2.1985   -0.2317 O.2       1 RES1    0.0000
     12 C3         5.5187    1.3962    0.9466 C.3       1 RES1    0.0000
     13 C4         2.9392    0.5984   -0.1970 C.ar      1 RES1    0.0000
     14 C5         4.1724    1.7890    1.5959 C.3       1 RES1    0.0000
     15 N3         3.1560   -1.8540    1.3345 N.pl3     1 RES1    0.0000
     16 C6         2.9892    1.7029    0.6592 C.ar      1 RES1    0.0000
     17 C7         1.8221    0.3717   -1.0098 C.ar      1 RES1    0.0000
     18 C8         5.3843    0.7525   -0.4089 C.3       1 RES1    0.0000
     19 C9         4.2630    3.0341    2.4385 C.3       1 RES1    0.0000
     20 C10        0.8312    2.3798   -0.1264 C.ar      1 RES1    0.0000
     21 C11        1.9372    2.6110    0.6976 C.ar      1 RES1    0.0000
     22 C12        0.7808    1.2964   -0.9417 C.ar      1 RES1    0.0000
     23 C13        1.7009   -0.7933   -1.9453 C.3       1 RES1    0.0000
     24 H1         4.1616   -0.8220   -1.0532 H         1 RES1    0.0000
     25 H2         6.1291    2.1622    0.9132 H         1 RES1    0.0000
     26 H3         6.2022    0.2584   -0.6257 H         1 RES1    0.0000
     27 H4         4.3320    3.8032    1.8673 H         1 RES1    0.0000
     28 H5         5.0391    2.9842    3.0023 H         1 RES1    0.0000
     29 H6         3.4774    3.1096    2.9837 H         1 RES1    0.0000
     30 H7         0.1202    2.9797   -0.1152 H         1 RES1    0.0000
     31 H8         1.9669    3.3514    1.2589 H         1 RES1    0.0000
     32 H9         0.0283    1.1680   -1.4720 H         1 RES1    0.0000
     33 H10        2.2499   -1.5155   -1.6294 H         1 RES1    0.0000
     34 H11        1.9915   -0.5319   -2.8226 H         1 RES1    0.0000
     35 H12        0.7863   -1.0789   -1.9825 H         1 RES1    0.0000
@<TRIPOS>BOND
     1    1    4 1
     2    2    4 1
     3    3   18 1
     4    4   10 1
     5    5    8 2
     6    6   15 2
     7    7   15 2
     8    9   10 1
     9   10    5 1
    10   11    5 2
    11   12    2 1
    12   13    9 1
    13   14    1 1
    14   15   10 1
    15   16   13 ar
    16   17   13 ar
    17   18    9 1
    18   19   14 1
    19   20   21 ar
    20   21   16 ar
    21   22   17 ar
    22   23   17 1
    23   24    9 1
    24   25   12 1
    25   26   18 1
    26   27   19 1
    27   28   19 1
    28   29   19 1
    29   30   20 1
    30   31   21 1
    31   32   22 1
    32   33   23 1
    33   34   23 1
    34   35   23 1
    35   12   14 1
    36   12   18 1
    37   14   16 1
    38   20   22 ar
@<TRIPOS>SUBSTRUCTURE
     1 RES1 1

@<TRIPOS>CRYSIN
  14.6100   15.1100   12.4300  90.0000  94.5600  90.0000  15 1

