# MOL2 file generated by ConQuest
# Please check atom types

@<TRIPOS>MOLECULE
ZOGQAN05
    37    39     1
SMALL
NO_CHARGES
****
Generated from CSD

@<TRIPOS>ATOM
      1 O1        16.0746    3.1795    3.1185 O.2       1 RES1    0.0000
      2 O2        15.8961    5.1496    4.0047 O.2       1 RES1    0.0000
      3 O3        19.3887    8.2838    2.7776 O.2       1 RES1    0.0000
      4 O4        20.8866    7.5121    1.4111 O.2       1 RES1    0.0000
      5 N1        14.2429    4.5915    1.1209 N.ar      1 RES1    0.0000
      6 N2        16.2830    4.3890    3.1223 N.pl3     1 RES1    0.0000
      7 N3        19.7689    7.4957    1.9278 N.pl3     1 RES1    0.0000
      8 N4        11.1545    5.9139    2.4165 N.ar      1 RES1    0.0000
      9 C1        12.9133    4.7893    1.2243 C.ar      1 RES1    0.0000
     10 C2        11.9855    4.0345    0.5058 C.ar      1 RES1    0.0000
     11 H1        11.0557    4.2107    0.5815 H         1 RES1    0.0000
     12 C3        12.4479    3.0255   -0.3179 C.ar      1 RES1    0.0000
     13 H2        11.8359    2.4917   -0.8122 H         1 RES1    0.0000
     14 C4        13.8091    2.7992   -0.4165 C.ar      1 RES1    0.0000
     15 H3        14.1489    2.1093   -0.9747 H         1 RES1    0.0000
     16 C5        14.6737    3.6089    0.3242 C.ar      1 RES1    0.0000
     17 C6        16.1600    3.3230    0.2692 C.3       1 RES1    0.0000
     18 C7        17.0735    4.4238    0.7482 C.ar      1 RES1    0.0000
     19 C8        17.0969    4.9576    2.0411 C.ar      1 RES1    0.0000
     20 C9        17.9267    5.9888    2.4300 C.ar      1 RES1    0.0000
     21 H4        17.8726    6.3670    3.2994 H         1 RES1    0.0000
     22 C10       18.8375    6.4461    1.5035 C.ar      1 RES1    0.0000
     23 C11       18.9015    5.9519    0.2184 C.ar      1 RES1    0.0000
     24 H5        19.5504    6.2731   -0.3959 H         1 RES1    0.0000
     25 C12       17.9887    4.9692   -0.1534 C.ar      1 RES1    0.0000
     26 H6        17.9878    4.6596   -1.0511 H         1 RES1    0.0000
     27 C13       12.4765    5.8532    2.1646 C.ar      1 RES1    0.0000
     28 C14       13.3946    6.7256    2.7518 C.ar      1 RES1    0.0000
     29 H7        14.3212    6.6571    2.5513 H         1 RES1    0.0000
     30 C15       12.9374    7.6904    3.6290 C.ar      1 RES1    0.0000
     31 H8        13.5421    8.2980    4.0379 H         1 RES1    0.0000
     32 C16       11.5788    7.7558    3.9018 C.ar      1 RES1    0.0000
     33 H9        11.2339    8.4040    4.5047 H         1 RES1    0.0000
     34 C17       10.7399    6.8538    3.2747 C.ar      1 RES1    0.0000
     35 H10        9.8102    6.9045    3.4646 H         1 RES1    0.0000
     36 H11       16.3380    2.5049    0.7576 H         1 RES1    0.0000
     37 H12       16.3918    3.0587   -0.6389 H         1 RES1    0.0000
@<TRIPOS>BOND
     1    1    6 2
     2    2    6 2
     3    3    7 2
     4    4    7 2
     5    5    9 ar
     6    6   19 1
     7    7   22 1
     8    8   27 ar
     9    9   10 ar
    10   10   11 1
    11   12   10 ar
    12   13   12 1
    13   14   12 ar
    14   15   14 1
    15   16    5 ar
    16   17   16 1
    17   18   17 1
    18   19   18 ar
    19   20   19 ar
    20   21   20 1
    21   22   20 ar
    22   23   22 ar
    23   24   23 1
    24   25   18 ar
    25   26   25 1
    26   27    9 1
    27   28   27 ar
    28   29   28 1
    29   30   28 ar
    30   31   30 1
    31   32   30 ar
    32   33   32 1
    33   34    8 ar
    34   35   34 1
    35   36   17 1
    36   37   17 1
    37   14   16 ar
    38   23   25 ar
    39   32   34 ar
@<TRIPOS>SUBSTRUCTURE
     1 RES1 1

@<TRIPOS>CRYSIN
  20.8360    5.2746   14.0971  90.0000 104.4570  90.0000  14 1

