# MOL2 file generated by ConQuest
# Please check atom types

@<TRIPOS>MOLECULE
ZOHSAQ
    57    60     1
SMALL
NO_CHARGES
****
Generated from CSD

@<TRIPOS>ATOM
      1 O1         3.2810    1.0050    7.0083 O.2       1 RES1    0.0000
      2 O2         3.9847    0.3294    9.4597 O.3       1 RES1    0.0000
      3 O3         2.0919    0.2838    4.7200 O.3       1 RES1    0.0000
      4 H1         2.4806    0.8511    5.3311 H         1 RES1    0.0000
      5 N1         3.6054   -0.6460    8.5176 N.am      1 RES1    0.0000
      6 C1         3.4035   -0.2038    7.2535 C.2       1 RES1    0.0000
      7 C2         3.3556   -1.2441    6.1436 C.3       1 RES1    0.0000
      8 H2         4.0992   -1.0402    5.5718 H         1 RES1    0.0000
      9 C3         3.6192   -2.6782    6.6564 C.3       1 RES1    0.0000
     10 H3         3.3071   -3.3242    6.0187 H         1 RES1    0.0000
     11 C4         5.1276   -2.8558    6.9310 C.3       1 RES1    0.0000
     12 H4         5.6465   -2.3181    6.3283 H         1 RES1    0.0000
     13 H5         5.3839   -3.7749    6.8246 H         1 RES1    0.0000
     14 C5         5.3326   -2.3904    8.3908 C.3       1 RES1    0.0000
     15 H6         5.9010   -1.6176    8.4284 H         1 RES1    0.0000
     16 H7         5.7242   -3.0909    8.9176 H         1 RES1    0.0000
     17 C6         3.9176   -2.0571    8.9070 C.3       1 RES1    0.0000
     18 C7         2.9741   -2.9379    8.0383 C.3       1 RES1    0.0000
     19 C8         3.1250   -4.4242    8.4156 C.3       1 RES1    0.0000
     20 H8         2.5398   -4.9572    7.8725 H         1 RES1    0.0000
     21 H9         4.0334   -4.6999    8.2730 H         1 RES1    0.0000
     22 H10        2.8969   -4.5402    9.3409 H         1 RES1    0.0000
     23 C9         1.4987   -2.5773    8.1658 C.3       1 RES1    0.0000
     24 H11        1.3671   -1.6554    7.9328 H         1 RES1    0.0000
     25 H12        0.9822   -3.1330    7.5775 H         1 RES1    0.0000
     26 H13        1.2168   -2.7218    9.0720 H         1 RES1    0.0000
     27 C10        3.7605   -2.2284   10.4080 C.3       1 RES1    0.0000
     28 H14        4.3814   -1.6551   10.8635 H         1 RES1    0.0000
     29 H15        2.8643   -1.9943   10.6605 H         1 RES1    0.0000
     30 H16        3.9324   -3.1417   10.6485 H         1 RES1    0.0000
     31 C11        2.7937    0.9275   10.0539 C.3       1 RES1    0.0000
     32 H17        2.2304    0.2470   10.4297 H         1 RES1    0.0000
     33 H18        2.2949    1.4098    9.3905 H         1 RES1    0.0000
     34 C12        3.2740    1.8635   11.1253 C.ar      1 RES1    0.0000
     35 C13        3.8198    1.3922   12.3042 C.ar      1 RES1    0.0000
     36 H19        3.8943    0.4450   12.4417 H         1 RES1    0.0000
     37 C14        4.2306    2.2666   13.2916 C.ar      1 RES1    0.0000
     38 H20        4.6261    1.9272   14.0978 H         1 RES1    0.0000
     39 C15        4.0958    3.6268   13.1070 C.ar      1 RES1    0.0000
     40 H21        4.3802    4.2334   13.7944 H         1 RES1    0.0000
     41 C16        3.5506    4.1124   11.9448 C.ar      1 RES1    0.0000
     42 H22        3.4469    5.0586   11.8203 H         1 RES1    0.0000
     43 C17        3.1535    3.2348   10.9482 C.ar      1 RES1    0.0000
     44 H23        2.7908    3.5711   10.1254 H         1 RES1    0.0000
     45 C18        2.0977   -1.0475    5.2425 C.3       1 RES1    0.0000
     46 H24        1.3073   -1.1912    5.7683 H         1 RES1    0.0000
     47 C19        2.1082   -2.0060    4.0825 C.ar      1 RES1    0.0000
     48 C20        2.9605   -1.7946    3.0018 C.ar      1 RES1    0.0000
     49 H25        3.5459   -1.0338    3.0082 H         1 RES1    0.0000
     50 C21        2.9731   -2.6695    1.9315 C.ar      1 RES1    0.0000
     51 H26        3.5525   -2.5010    1.1849 H         1 RES1    0.0000
     52 C22        2.1481   -3.7799    1.9276 C.ar      1 RES1    0.0000
     53 H27        2.1574   -4.3871    1.1840 H         1 RES1    0.0000
     54 C23        1.3138   -4.0119    3.0063 C.ar      1 RES1    0.0000
     55 H28        0.7475   -4.7869    3.0111 H         1 RES1    0.0000
     56 C24        1.2878   -3.1285    4.0707 C.ar      1 RES1    0.0000
     57 H29        0.7000   -3.2917    4.8120 H         1 RES1    0.0000
@<TRIPOS>BOND
     1    1    6 2
     2    2    5 1
     3    3    4 1
     4    5    6 1
     5    6    7 1
     6    7    8 1
     7    9    7 1
     8   10    9 1
     9   11    9 1
    10   12   11 1
    11   13   11 1
    12   14   11 1
    13   15   14 1
    14   16   14 1
    15   17    5 1
    16   18    9 1
    17   19   18 1
    18   20   19 1
    19   21   19 1
    20   22   19 1
    21   23   18 1
    22   24   23 1
    23   25   23 1
    24   26   23 1
    25   27   17 1
    26   28   27 1
    27   29   27 1
    28   30   27 1
    29   31    2 1
    30   32   31 1
    31   33   31 1
    32   34   31 1
    33   35   34 ar
    34   36   35 1
    35   37   35 ar
    36   38   37 1
    37   39   37 ar
    38   40   39 1
    39   41   39 ar
    40   42   41 1
    41   43   34 ar
    42   44   43 1
    43   45    3 1
    44   46   45 1
    45   47   45 1
    46   48   47 ar
    47   49   48 1
    48   50   48 ar
    49   51   50 1
    50   52   50 ar
    51   53   52 1
    52   54   52 ar
    53   55   54 1
    54   56   47 ar
    55   57   56 1
    56    7   45 1
    57   14   17 1
    58   17   18 1
    59   41   43 ar
    60   54   56 ar
@<TRIPOS>SUBSTRUCTURE
     1 RES1 1

@<TRIPOS>CRYSIN
   7.8060   10.5070   12.4670  85.1300  81.2600  82.5800   2 1

