# MOL2 file generated by ConQuest
# Please check atom types

@<TRIPOS>MOLECULE
ZOKDAG
    53    55     1
SMALL
NO_CHARGES
****
Generated from CSD

@<TRIPOS>ATOM
      1 O1         6.8292   -2.5987   10.7012 O.3       1 RES1    0.0000
      2 O2         5.8957   -2.6056    6.7208 O.2       1 RES1    0.0000
      3 O3        10.6987    3.3784    9.8926 O.2       1 RES1    0.0000
      4 O4         9.1082    4.7849   10.2177 O.2       1 RES1    0.0000
      5 O5         3.5158    0.5198    7.8316 O.2       1 RES1    0.0000
      6 N1         5.6476   -1.1631    8.4365 N.am      1 RES1    0.0000
      7 N2         9.5245    3.7180    9.8077 N.pl3     1 RES1    0.0000
      8 N3         4.5507    1.1544    5.9125 N.am      1 RES1    0.0000
      9 C1         5.5628   -3.5517    8.8574 C.ar      1 RES1    0.0000
     10 C2         4.9267   -4.6844    8.3604 C.ar      1 RES1    0.0000
     11 C3         4.7405   -5.7945    9.1200 C.ar      1 RES1    0.0000
     12 C4         5.2211   -5.8217   10.3907 C.ar      1 RES1    0.0000
     13 C5         5.9009   -4.7469   10.9189 C.ar      1 RES1    0.0000
     14 C6         6.0508   -3.5976   10.1370 C.ar      1 RES1    0.0000
     15 C7         6.3824   -1.2926   10.7593 C.2       1 RES1    0.0000
     16 C8         5.2747   -0.9473    9.8371 C.3       1 RES1    0.0000
     17 C9         5.7295   -2.3958    7.9254 C.2       1 RES1    0.0000
     18 C10        6.9878   -0.4763   11.5859 C.2       1 RES1    0.0000
     19 C11        5.8421   -0.0118    7.5388 C.3       1 RES1    0.0000
     20 C12        6.7784    0.9979    8.1474 C.ar      1 RES1    0.0000
     21 C13        8.1289    0.7062    8.1863 C.ar      1 RES1    0.0000
     22 C14        9.0369    1.5835    8.7265 C.ar      1 RES1    0.0000
     23 C15        8.5793    2.7607    9.2332 C.ar      1 RES1    0.0000
     24 C16        7.2514    3.0946    9.2120 C.ar      1 RES1    0.0000
     25 C17        6.3481    2.2107    8.6674 C.ar      1 RES1    0.0000
     26 C18        4.5020    0.5745    7.1112 C.2       1 RES1    0.0000
     27 C19        3.4518    1.8262    5.1953 C.3       1 RES1    0.0000
     28 C20        2.9535    2.9834    6.0078 C.3       1 RES1    0.0000
     29 C21        4.0048    2.2360    3.8643 C.3       1 RES1    0.0000
     30 C22        2.3026    0.8041    4.9735 C.3       1 RES1    0.0000
     31 H1         4.6202   -4.6814    7.4824 H         1 RES1    0.0000
     32 H2         4.2880   -6.5295    8.7737 H         1 RES1    0.0000
     33 H3         5.3129    1.1483    5.5271 H         1 RES1    0.0000
     34 H4         5.0887   -6.5797   10.9129 H         1 RES1    0.0000
     35 H5         6.2533   -4.7848   11.7787 H         1 RES1    0.0000
     36 H6         5.0307   -0.0172    9.9638 H         1 RES1    0.0000
     37 H7         4.5000   -1.4911   10.0495 H         1 RES1    0.0000
     38 H8         7.6931   -0.7828   12.1088 H         1 RES1    0.0000
     39 H9         6.7122    0.4095   11.6499 H         1 RES1    0.0000
     40 H10        6.2764   -0.3518    6.7288 H         1 RES1    0.0000
     41 H11        8.4396   -0.0921    7.7745 H         1 RES1    0.0000
     42 H12        9.9437    1.3779    8.7455 H         1 RES1    0.0000
     43 H13        6.9641    3.9075    9.5607 H         1 RES1    0.0000
     44 H14        5.4439    2.4273    8.6477 H         1 RES1    0.0000
     45 H15        2.6044    2.6617    6.8423 H         1 RES1    0.0000
     46 H16        3.6774    3.5909    6.1768 H         1 RES1    0.0000
     47 H17        2.2598    3.4384    5.5248 H         1 RES1    0.0000
     48 H18        4.3041    1.4576    3.3887 H         1 RES1    0.0000
     49 H19        3.3209    2.6782    3.3560 H         1 RES1    0.0000
     50 H20        4.7437    2.8346    3.9953 H         1 RES1    0.0000
     51 H21        1.9377    0.5437    5.8223 H         1 RES1    0.0000
     52 H22        1.6143    1.2074    4.4394 H         1 RES1    0.0000
     53 H23        2.6458    0.0298    4.5216 H         1 RES1    0.0000
@<TRIPOS>BOND
     1    1   14 1
     2    2   17 2
     3    3    7 2
     4    4    7 2
     5    5   26 2
     6    6   16 1
     7    7   23 1
     8    8   26 1
     9    9   10 ar
    10   10   11 ar
    11   11   12 ar
    12   12   13 ar
    13   13   14 ar
    14   14    9 ar
    15   15    1 1
    16   16   15 1
    17   17    6 1
    18   18   15 2
    19   19    6 1
    20   20   19 1
    21   21   20 ar
    22   22   21 ar
    23   23   22 ar
    24   24   23 ar
    25   25   20 ar
    26   26   19 1
    27   27    8 1
    28   28   27 1
    29   29   27 1
    30   30   27 1
    31   31   10 1
    32   32   11 1
    33   33    8 1
    34   34   12 1
    35   35   13 1
    36   36   16 1
    37   37   16 1
    38   38   18 1
    39   39   18 1
    40   40   19 1
    41   41   21 1
    42   42   22 1
    43   43   24 1
    44   44   25 1
    45   45   28 1
    46   46   28 1
    47   47   28 1
    48   48   29 1
    49   49   29 1
    50   50   29 1
    51   51   30 1
    52   52   30 1
    53   53   30 1
    54    9   17 1
    55   24   25 ar
@<TRIPOS>SUBSTRUCTURE
     1 RES1 1

@<TRIPOS>CRYSIN
   8.5730   11.4820   12.2790  98.5210 109.5600  92.0040   2 1

