# MOL2 file generated by ConQuest
# Please check atom types

@<TRIPOS>MOLECULE
ZOKKIV
    67    70     1
SMALL
NO_CHARGES
****
Generated from CSD

@<TRIPOS>ATOM
      1 C1        13.8867    7.6009   14.2051 C.2       1 RES1    0.0000
      2 C2        14.9669    7.4762   15.2319 C.3       1 RES1    0.0000
      3 H1        14.8233    6.6817   15.8039 H         1 RES1    0.0000
      4 H2        15.0075    8.2831   15.8039 H         1 RES1    0.0000
      5 C3        16.2468    7.3301   14.3992 C.3       1 RES1    0.0000
      6 H3        17.0282    7.7069   14.8785 H         1 RES1    0.0000
      7 H4        16.4266    6.3798   14.1878 H         1 RES1    0.0000
      8 C4        15.9476    8.1184   13.1436 C.3       1 RES1    0.0000
      9 H5        16.5500    7.8467   12.4051 H         1 RES1    0.0000
     10 H6        16.0532    9.0892   13.3029 H         1 RES1    0.0000
     11 C5        14.4861    7.7701   12.8163 C.3       1 RES1    0.0000
     12 C6        14.4057    6.4733   12.0952 C.2       1 RES1    0.0000
     13 C7        13.9604    5.2415   12.3833 C.2       1 RES1    0.0000
     14 H7        13.5169    4.9726   13.1769 H         1 RES1    0.0000
     15 C8        14.2806    4.4212   11.2769 C.2       1 RES1    0.0000
     16 H8        14.0890    3.4949   11.1871 H         1 RES1    0.0000
     17 C9        14.8951    5.1819   10.3935 C.2       1 RES1    0.0000
     18 C10       15.3957    5.0028    9.0062 C.3       1 RES1    0.0000
     19 H9        14.7009    5.2718    8.3704 H         1 RES1    0.0000
     20 H10       15.6258    4.0614    8.8599 H         1 RES1    0.0000
     21 H11       16.1943    5.5577    8.8730 H         1 RES1    0.0000
     22 C11       13.8130    8.8692   12.0068 C.2       1 RES1    0.0000
     23 C12       11.7684    9.5773   11.0192 C.3       1 RES1    0.0000
     24 H12       12.3215   10.0297   10.3197 H         1 RES1    0.0000
     25 C13       11.3464   10.5846   12.0589 C.3       1 RES1    0.0000
     26 H13       12.1584   10.9943   12.4500 H         1 RES1    0.0000
     27 H14       10.8708   10.1090   12.7859 H         1 RES1    0.0000
     28 C14       10.4528   11.6863   11.5347 C.3       1 RES1    0.0000
     29 H15       10.9723   12.2065   10.8570 H         1 RES1    0.0000
     30 C15        9.2675   11.0460   10.8237 C.3       1 RES1    0.0000
     31 H16        8.6910   10.5980   11.4927 H         1 RES1    0.0000
     32 H17        8.7316   11.7523   10.3834 H         1 RES1    0.0000
     33 C16        9.7018   10.0377    9.7897 C.3       1 RES1    0.0000
     34 H18       10.2133   10.5036    9.0815 H         1 RES1    0.0000
     35 H19        8.8976    9.6405    9.3711 H         1 RES1    0.0000
     36 C17       10.5639    8.9146   10.3660 C.3       1 RES1    0.0000
     37 H20       10.0341    8.4969   11.1032 H         1 RES1    0.0000
     38 C18       10.0289   12.6340   12.6121 C.3       1 RES1    0.0000
     39 H21       10.8172   13.0838   12.9800 H         1 RES1    0.0000
     40 H22        9.5759   12.1370   13.3232 H         1 RES1    0.0000
     41 H23        9.4173   13.3020   12.2371 H         1 RES1    0.0000
     42 C19       10.8251    7.7870    9.3089 C.3       1 RES1    0.0000
     43 C20       11.5601    6.5811    9.9113 C.3       1 RES1    0.0000
     44 H24       12.4699    6.8438   10.1604 H         1 RES1    0.0000
     45 H25       11.5974    5.8588    9.2495 H         1 RES1    0.0000
     46 H26       11.0808    6.2702   10.7064 H         1 RES1    0.0000
     47 C21       11.6701    8.2840    8.1590 C.3       1 RES1    0.0000
     48 H27       11.7661    7.5715    7.4929 H         1 RES1    0.0000
     49 H28       12.5556    8.5414    8.4921 H         1 RES1    0.0000
     50 H29       11.2379    9.0607    7.7477 H         1 RES1    0.0000
     51 C22        9.4066    7.2010    8.8831 C.ar      1 RES1    0.0000
     52 C23        8.7044    6.5170    9.9041 C.ar      1 RES1    0.0000
     53 H30        9.1018    6.4867   10.7672 H         1 RES1    0.0000
     54 C24        7.4928    5.8944    9.7361 C.ar      1 RES1    0.0000
     55 H31        7.0361    5.4473   10.4399 H         1 RES1    0.0000
     56 C25        7.0159    5.9763    8.4964 C.ar      1 RES1    0.0000
     57 H32        6.2084    5.5025    8.3371 H         1 RES1    0.0000
     58 C26        7.5345    6.6559    7.4060 C.ar      1 RES1    0.0000
     59 H33        7.0847    6.6951    6.5704 H         1 RES1    0.0000
     60 C27        8.9278    7.3604    7.6536 C.ar      1 RES1    0.0000
     61 H34        9.3839    7.8556    6.9816 H         1 RES1    0.0000
     62 N1        12.6414    7.5483   14.3636 N.2       1 RES1    0.0000
     63 O1        12.2884    7.3560   15.7041 O.3       1 RES1    0.0000
     64 H35       11.4518    7.3586   15.7764 H         1 RES1    0.0000
     65 O2        12.5668    8.5521   11.6876 O.3       1 RES1    0.0000
     66 O3        14.3524    9.8926   11.7012 O.2       1 RES1    0.0000
     67 O4        14.9966    6.4689   10.8720 O.3       1 RES1    0.0000
@<TRIPOS>BOND
     1    1    2 1
     2    2    3 1
     3    4    2 1
     4    5    2 1
     5    6    5 1
     6    7    5 1
     7    8    5 1
     8    9    8 1
     9   10    8 1
    10   11    1 1
    11   12   11 1
    12   13   12 2
    13   14   13 1
    14   15   13 1
    15   16   15 1
    16   17   15 2
    17   18   17 1
    18   19   18 1
    19   20   18 1
    20   21   18 1
    21   22   11 1
    22   23   24 1
    23   25   23 1
    24   26   25 1
    25   27   25 1
    26   28   25 1
    27   29   28 1
    28   30   28 1
    29   31   30 1
    30   32   30 1
    31   33   30 1
    32   34   33 1
    33   35   33 1
    34   36   23 1
    35   37   36 1
    36   38   28 1
    37   39   38 1
    38   40   38 1
    39   41   38 1
    40   42   36 1
    41   43   42 1
    42   44   43 1
    43   45   43 1
    44   46   43 1
    45   47   42 1
    46   48   47 1
    47   49   47 1
    48   50   47 1
    49   51   42 1
    50   52   51 ar
    51   53   52 1
    52   54   52 ar
    53   55   54 1
    54   56   54 ar
    55   57   56 1
    56   58   56 ar
    57   59   58 1
    58   60   51 ar
    59   61   60 1
    60   62    1 2
    61   63   62 1
    62   64   63 1
    63   65   22 1
    64   66   22 2
    65   67   12 1
    66    8   11 1
    67   17   67 1
    68   23   65 1
    69   33   36 1
    70   58   60 ar
@<TRIPOS>SUBSTRUCTURE
     1 RES1 1

@<TRIPOS>CRYSIN
  19.3880    8.9066   16.6420  90.0000 119.5190  90.0000   5 1

