# MOL2 file generated by ConQuest
# Please check atom types

@<TRIPOS>MOLECULE
ZOKWED
    39    40     1
SMALL
NO_CHARGES
****
Generated from CSD

@<TRIPOS>ATOM
      1 N1         6.7212    5.6369   11.9568 N.3       1 RES1    0.0000
      2 N2         4.5339    5.5111   10.0170 N.pl3     1 RES1    0.0000
      3 N3         7.7282    5.6774   12.8051 N.2       1 RES1    0.0000
      4 O1         4.2359    5.7194   11.1831 O.2       1 RES1    0.0000
      5 O2         9.7995    5.8204   14.5232 O.2       1 RES1    0.0000
      6 O3         3.7165    5.5743    9.1161 O.2       1 RES1    0.0000
      7 O4         5.2027    6.4390   13.8450 O.2       1 RES1    0.0000
      8 C1         6.9310    5.2582   10.6397 C.ar      1 RES1    0.0000
      9 C2         7.5011    6.0568   14.0393 C.2       1 RES1    0.0000
     10 C3         5.9143    5.1949    9.6868 C.ar      1 RES1    0.0000
     11 C4         8.4656    6.3517   16.3948 C.3       1 RES1    0.0000
     12 C5         7.0576    6.1538   16.9203 C.3       1 RES1    0.0000
     13 C6         6.1601    4.8183    8.3727 C.ar      1 RES1    0.0000
     14 C7         8.4331    4.5729    8.8980 C.ar      1 RES1    0.0000
     15 C8         7.4118    4.4993    7.9558 C.ar      1 RES1    0.0000
     16 C9         8.6894    6.0438   14.9476 C.2       1 RES1    0.0000
     17 C10        6.1936    6.4514   14.5633 C.2       1 RES1    0.0000
     18 C11        6.1104    6.8906   15.9850 C.3       1 RES1    0.0000
     19 C12        8.2107    4.9406   10.1969 C.ar      1 RES1    0.0000
     20 C13        6.9539    6.7490   18.3187 C.3       1 RES1    0.0000
     21 C14        7.6880    4.0849    6.5406 C.3       1 RES1    0.0000
     22 C15        6.7004    4.6801   16.9734 C.3       1 RES1    0.0000
     23 H1         5.4395    4.8114    7.8059 H         1 RES1    0.0000
     24 H2         8.8883    5.0107   10.7925 H         1 RES1    0.0000
     25 H3         9.0802    5.8286   16.8817 H         1 RES1    0.0000
     26 H4         5.8644    5.8630   12.2513 H         1 RES1    0.0000
     27 H5         7.0933    7.7394   18.3248 H         1 RES1    0.0000
     28 H6         5.8422    4.5639   17.2833 H         1 RES1    0.0000
     29 H7         9.2833    4.3646    8.6249 H         1 RES1    0.0000
     30 H8         5.1845    6.8597   16.2675 H         1 RES1    0.0000
     31 H9         8.7329    7.3408   16.4880 H         1 RES1    0.0000
     32 H10        6.3384    7.8494   15.9781 H         1 RES1    0.0000
     33 H11        7.3452    4.1928   17.5707 H         1 RES1    0.0000
     34 H12        6.0362    6.6947   18.6791 H         1 RES1    0.0000
     35 H13        7.5560    6.3098   18.9311 H         1 RES1    0.0000
     36 H14        6.8342    4.2271   16.0863 H         1 RES1    0.0000
     37 H15        6.8868    4.0209    6.0735 H         1 RES1    0.0000
     38 H16        8.1082    4.7701    6.0656 H         1 RES1    0.0000
     39 H17        8.0279    3.2099    6.4534 H         1 RES1    0.0000
@<TRIPOS>BOND
     1    1    3 1
     2    2    4 2
     3    3    9 2
     4    5   16 2
     5    6    2 2
     6    7   17 2
     7    8    1 1
     8    9   16 1
     9   10    2 1
    10   11   12 1
    11   12   18 1
    12   13   10 ar
    13   14   15 ar
    14   15   13 ar
    15   16   11 1
    16   17    9 1
    17   18   17 1
    18   19    8 ar
    19   20   12 1
    20   21   15 1
    21   22   12 1
    22   23   13 1
    23   24   19 1
    24   25   11 1
    25   26    1 1
    26   27   20 1
    27   28   22 1
    28   29   14 1
    29   30   18 1
    30   31   11 1
    31   32   18 1
    32   33   22 1
    33   34   20 1
    34   35   20 1
    35   36   22 1
    36   37   21 1
    37   38   21 1
    38   39   21 1
    39    8   10 ar
    40   14   19 ar
@<TRIPOS>SUBSTRUCTURE
     1 RES1 1

@<TRIPOS>CRYSIN
  21.6280    6.8734   21.7920  90.0000 115.3900  90.0000  15 1

