# MOL2 file generated by ConQuest
# Please check atom types

@<TRIPOS>MOLECULE
ZONFOX
    44    44     1
SMALL
NO_CHARGES
****
Generated from CSD

@<TRIPOS>ATOM
      1 O1        -6.2489    2.0627   -9.5843 O.3       1 RES1    0.0000
      2 O2        -6.1578   -2.1564  -14.9029 O.2       1 RES1    0.0000
      3 O3        -5.5000   -0.3932  -15.9257 O.2       1 RES1    0.0000
      4 N1        -5.1102   -1.0927  -10.9731 N.3       1 RES1    0.0000
      5 N2        -4.4821   -0.7178  -12.1272 N.2       1 RES1    0.0000
      6 N3        -5.2924   -1.4675  -15.3927 N.pl3     1 RES1    0.0000
      7 C1        -5.6830    3.1070   -8.8111 C.3       1 RES1    0.0000
      8 C2        -5.3791    0.9777   -9.7232 C.3       1 RES1    0.0000
      9 C3        -6.0842   -0.0927  -10.5114 C.3       1 RES1    0.0000
     10 C4        -7.0880   -0.8811   -9.7007 C.3       1 RES1    0.0000
     11 C5        -6.6106   -2.2684   -9.6913 C.3       1 RES1    0.0000
     12 C6        -5.6935   -2.4549  -10.8586 C.3       1 RES1    0.0000
     13 C7        -3.8953   -1.5999  -12.8385 C.2       1 RES1    0.0000
     14 C8        -3.2190   -1.2067  -14.1090 C.3       1 RES1    0.0000
     15 C9        -3.8935   -1.9216  -15.2857 C.3       1 RES1    0.0000
     16 C10       -1.6800   -1.4221  -14.1072 C.3       1 RES1    0.0000
     17 C11       -1.3165   -2.9013  -13.9983 C.3       1 RES1    0.0000
     18 C12       -1.0625   -0.8396  -15.3645 C.3       1 RES1    0.0000
     19 C13       -1.0923   -0.7062  -12.8986 C.3       1 RES1    0.0000
     20 H1        -4.8080    3.4500   -9.3103 H         1 RES1    0.0000
     21 H2        -5.3659    2.8665   -7.8390 H         1 RES1    0.0000
     22 H3        -6.3041    3.8268   -8.6910 H         1 RES1    0.0000
     23 H4        -6.5581    0.3826  -11.4085 H         1 RES1    0.0000
     24 H5        -4.4410    1.1197  -10.2299 H         1 RES1    0.0000
     25 H6        -4.9709    0.7120   -8.8092 H         1 RES1    0.0000
     26 H7        -7.4708   -0.5014   -8.9087 H         1 RES1    0.0000
     27 H8        -7.9569   -0.8821  -10.2449 H         1 RES1    0.0000
     28 H9        -6.0772   -2.4076   -8.6816 H         1 RES1    0.0000
     29 H10       -7.2790   -2.8771   -9.6162 H         1 RES1    0.0000
     30 H11       -6.1990   -2.5815  -11.8044 H         1 RES1    0.0000
     31 H12       -4.9455   -3.1235  -10.6690 H         1 RES1    0.0000
     32 H13       -3.8769   -2.5892  -12.5495 H         1 RES1    0.0000
     33 H14       -3.3609   -0.2435  -14.2854 H         1 RES1    0.0000
     34 H15       -3.4223   -1.7941  -16.1171 H         1 RES1    0.0000
     35 H16       -3.9031   -2.9022  -15.1694 H         1 RES1    0.0000
     36 H17       -1.7449   -3.3660  -14.8991 H         1 RES1    0.0000
     37 H18       -1.7484   -3.3814  -13.1913 H         1 RES1    0.0000
     38 H19       -0.3793   -3.0742  -13.9983 H         1 RES1    0.0000
     39 H20       -1.3305    0.1159  -15.4753 H         1 RES1    0.0000
     40 H21       -1.3936   -1.2801  -16.2072 H         1 RES1    0.0000
     41 H22       -0.0999   -0.8937  -15.3946 H         1 RES1    0.0000
     42 H23       -1.4733   -1.0589  -12.0709 H         1 RES1    0.0000
     43 H24       -1.2202    0.1855  -12.9417 H         1 RES1    0.0000
     44 H25       -0.0946   -0.8019  -12.9455 H         1 RES1    0.0000
@<TRIPOS>BOND
     1    1    7 1
     2    2    6 2
     3    3    6 2
     4    4    5 1
     5    5   13 2
     6    6   15 1
     7    7   20 1
     8    8    1 1
     9    9    4 1
    10   10    9 1
    11   11   10 1
    12   12    4 1
    13   13   14 1
    14   14   15 1
    15   15   34 1
    16   16   14 1
    17   17   16 1
    18   18   16 1
    19   19   16 1
    20   21    7 1
    21   22    7 1
    22   23    9 1
    23   24    8 1
    24   25    8 1
    25   26   10 1
    26   27   10 1
    27   28   11 1
    28   29   11 1
    29   30   12 1
    30   31   12 1
    31   32   13 1
    32   33   14 1
    33   35   15 1
    34   36   17 1
    35   37   17 1
    36   38   17 1
    37   39   18 1
    38   40   18 1
    39   41   18 1
    40   42   19 1
    41   43   19 1
    42   44   19 1
    43    8    9 1
    44   11   12 1
@<TRIPOS>SUBSTRUCTURE
     1 RES1 1

@<TRIPOS>CRYSIN
   8.7593    9.6612   18.7670  90.0000  90.0000  90.0000  19 1

