# MOL2 file generated by ConQuest
# Please check atom types

@<TRIPOS>MOLECULE
ZONJUH
    46    47     1
SMALL
NO_CHARGES
****
Generated from CSD

@<TRIPOS>ATOM
      1 N1         0.2786    6.8112   12.6358 N.pl3     1 RES1    0.0000
      2 N2         0.4383    2.6776    0.8906 N.3       1 RES1    0.0000
      3 O1        -1.2416    5.6363    7.4269 O.3       1 RES1    0.0000
      4 O2        -1.4549    4.1961    4.9441 O.3       1 RES1    0.0000
      5 O3        -0.2035    6.1703   13.5581 O.2       1 RES1    0.0000
      6 O4         0.9844    7.7806   12.8125 O.2       1 RES1    0.0000
      7 C1        -0.8555    5.8207    8.7120 C.ar      1 RES1    0.0000
      8 C2        -0.0039    6.9002    8.9404 C.ar      1 RES1    0.0000
      9 C3        -2.8953    4.0547    1.5822 C.ar      1 RES1    0.0000
     10 C4        -0.5762    3.4886    2.9220 C.ar      1 RES1    0.0000
     11 C5        -1.6607    4.0097    3.6019 C.ar      1 RES1    0.0000
     12 C6        -2.8484    4.2913    2.9482 C.ar      1 RES1    0.0000
     13 C7        -2.5601    4.6467    5.7136 C.3       1 RES1    0.0000
     14 C8        -1.8349    3.5458    0.8783 C.ar      1 RES1    0.0000
     15 C9         0.3932    7.2088   10.2154 C.ar      1 RES1    0.0000
     16 C10       -0.6355    3.2276    1.5490 C.ar      1 RES1    0.0000
     17 C11       -0.0687    6.4373   11.2635 C.ar      1 RES1    0.0000
     18 C12       -2.1834    4.5876    7.1591 C.3       1 RES1    0.0000
     19 C13       -1.2712    5.0259    9.7786 C.ar      1 RES1    0.0000
     20 C14       -0.8764    5.3431   11.0582 C.ar      1 RES1    0.0000
     21 C15        1.6610    2.3516    1.5860 C.3       1 RES1    0.0000
     22 C16        1.6163    1.0545    2.3123 C.3       1 RES1    0.0000
     23 C17        0.3178    2.1442   -0.4669 C.3       1 RES1    0.0000
     24 C18        0.7851    3.1185   -1.4494 C.3       1 RES1    0.0000
     25 H1         0.2456    3.2771    3.4499 H         1 RES1    0.0000
     26 H2         1.0018    7.9427   10.3806 H         1 RES1    0.0000
     27 H3         0.2869    7.4283    8.1887 H         1 RES1    0.0000
     28 H4        -3.5734    4.6072    3.3882 H         1 RES1    0.0000
     29 H5        -1.7615    4.2626    9.6165 H         1 RES1    0.0000
     30 H6        -1.7671    3.6823    7.4015 H         1 RES1    0.0000
     31 H7        -2.7706    5.6037    5.4180 H         1 RES1    0.0000
     32 H8        -3.7052    4.2713    1.0959 H         1 RES1    0.0000
     33 H9         1.8902    3.1391    2.2382 H         1 RES1    0.0000
     34 H10        2.3221    2.3646    0.8953 H         1 RES1    0.0000
     35 H11       -3.3151    4.0108    5.5569 H         1 RES1    0.0000
     36 H12       -1.1222    4.8020   11.8161 H         1 RES1    0.0000
     37 H13       -2.9824    4.7299    7.7102 H         1 RES1    0.0000
     38 H14       -1.9079    3.4007   -0.0309 H         1 RES1    0.0000
     39 H15        2.3326    0.9057    2.7784 H         1 RES1    0.0000
     40 H16        0.7991    0.8860    2.9560 H         1 RES1    0.0000
     41 H17        1.3593    0.2978    1.6902 H         1 RES1    0.0000
     42 H18       -0.5491    1.7810   -0.9339 H         1 RES1    0.0000
     43 H19        0.7568    1.2163   -0.7718 H         1 RES1    0.0000
     44 H20        0.4461    2.1305   -2.1224 H         1 RES1    0.0000
     45 H21        0.2340    3.8774   -1.2735 H         1 RES1    0.0000
     46 H22        1.6518    3.3813   -1.2117 H         1 RES1    0.0000
@<TRIPOS>BOND
     1    1    5 2
     2    2   16 1
     3    3    7 1
     4    4   11 1
     5    6    1 2
     6    7    8 ar
     7    8   15 ar
     8    9   12 ar
     9   10   11 ar
    10   11   12 ar
    11   12   28 1
    12   13    4 1
    13   14    9 ar
    14   15   17 ar
    15   16   10 ar
    16   17    1 1
    17   18    3 1
    18   19    7 ar
    19   20   17 ar
    20   21    2 1
    21   22   21 1
    22   23    2 1
    23   24   23 1
    24   25   10 1
    25   26   15 1
    26   27    8 1
    27   29   19 1
    28   30   18 1
    29   31   13 1
    30   32    9 1
    31   33   21 1
    32   34   21 1
    33   35   13 1
    34   36   20 1
    35   37   18 1
    36   38   14 1
    37   39   22 1
    38   40   22 1
    39   41   22 1
    40   42   23 1
    41   43   23 1
    42   44   24 1
    43   45   24 1
    44   46   24 1
    45   13   18 1
    46   14   16 ar
    47   19   20 ar
@<TRIPOS>SUBSTRUCTURE
     1 RES1 1

@<TRIPOS>CRYSIN
  12.2820   12.7340    8.0970 102.6200  89.9300 133.9700   2 1

