# MOL2 file generated by ConQuest
# Please check atom types

@<TRIPOS>MOLECULE
ZONJOB
    40    41     1
SMALL
NO_CHARGES
****
Generated from CSD

@<TRIPOS>ATOM
      1 C1         5.6858    1.2271    3.6287 C.ar      1 RES1    0.0000
      2 C2         4.1823    2.4385    5.0754 C.ar      1 RES1    0.0000
      3 C3         5.4324    2.2786    4.4913 C.ar      1 RES1    0.0000
      4 C4        10.1679    1.3059    0.4891 C.ar      1 RES1    0.0000
      5 C5         3.1196    1.5390    4.8264 C.ar      1 RES1    0.0000
      6 C6         4.6594    0.3276    3.3573 C.ar      1 RES1    0.0000
      7 C7         3.4161    0.4841    3.9476 C.ar      1 RES1    0.0000
      8 C8        11.5980    2.5679   -0.9414 C.ar      1 RES1    0.0000
      9 C9         8.6517    0.0946    1.8730 C.3       1 RES1    0.0000
     10 C10       12.4644    0.6383    0.2159 C.ar      1 RES1    0.0000
     11 C11       10.3668    2.3743   -0.3762 C.ar      1 RES1    0.0000
     12 C12        7.2031    0.0822    2.2224 C.3       1 RES1    0.0000
     13 C13       12.6348    1.6966   -0.6405 C.ar      1 RES1    0.0000
     14 C14       11.2185    0.4424    0.7892 C.ar      1 RES1    0.0000
     15 C15        0.8000    0.8004    5.0100 C.3       1 RES1    0.0000
     16 C16        1.4686    2.8798    6.0321 C.3       1 RES1    0.0000
     17 N1         1.8809    1.6651    5.4435 N.pl3     1 RES1    0.0000
     18 N2        13.9535    1.8925   -1.2774 N.pl3     1 RES1    0.0000
     19 O1         6.9559    1.1573    3.1101 O.3       1 RES1    0.0000
     20 O2         8.9175    1.1900    0.9961 O.3       1 RES1    0.0000
     21 O3        14.1181    2.8460   -1.9769 O.2       1 RES1    0.0000
     22 O4        14.8304    1.1055   -1.0436 O.2       1 RES1    0.0000
     23 H1         8.8042   -0.7318    1.3705 H         1 RES1    0.0000
     24 H2         6.7254    0.0563    1.2899 H         1 RES1    0.0000
     25 H3         9.1238    0.2139    2.6962 H         1 RES1    0.0000
     26 H4         0.5309    0.9682    3.9861 H         1 RES1    0.0000
     27 H5        -0.0390    1.0132    5.4910 H         1 RES1    0.0000
     28 H6         6.9982   -0.8106    2.6246 H         1 RES1    0.0000
     29 H7         4.9160   -0.4391    2.7052 H         1 RES1    0.0000
     30 H8         9.5567    2.9946   -0.5285 H         1 RES1    0.0000
     31 H9        11.1057   -0.2139    1.3705 H         1 RES1    0.0000
     32 H10       11.7575    3.3099   -1.5049 H         1 RES1    0.0000
     33 H11        2.6501   -0.1013    3.7174 H         1 RES1    0.0000
     34 H12        6.2482    2.9271    4.7654 H         1 RES1    0.0000
     35 H13        0.9869   -0.1351    5.1865 H         1 RES1    0.0000
     36 H14        4.0994    3.2085    5.6881 H         1 RES1    0.0000
     37 H15       13.3145    0.0000    0.4568 H         1 RES1    0.0000
     38 H16        0.5028    2.8258    6.4763 H         1 RES1    0.0000
     39 H17        1.4460    3.6251    5.3029 H         1 RES1    0.0000
     40 H18        2.1048    3.1522    6.7272 H         1 RES1    0.0000
@<TRIPOS>BOND
     1    1    3 ar
     2    2    3 ar
     3    3   34 1
     4    4   11 ar
     5    5    2 ar
     6    6    1 ar
     7    7    5 ar
     8    8   11 ar
     9    9   12 1
    10   10   13 ar
    11   11   30 1
    12   12   19 1
    13   13    8 ar
    14   14    4 ar
    15   15   17 1
    16   16   17 1
    17   17    5 1
    18   18   13 1
    19   19    1 1
    20   20    4 1
    21   21   18 2
    22   22   18 2
    23   23    9 1
    24   24   12 1
    25   25    9 1
    26   26   15 1
    27   27   15 1
    28   28   12 1
    29   29    6 1
    30   31   14 1
    31   32    8 1
    32   33    7 1
    33   35   15 1
    34   36    2 1
    35   37   10 1
    36   38   16 1
    37   39   16 1
    38   40   16 1
    39    6    7 ar
    40    9   20 1
    41   10   14 ar
@<TRIPOS>SUBSTRUCTURE
     1 RES1 1

@<TRIPOS>CRYSIN
  15.2420   11.2580    9.0170  90.0000  96.5800  90.0000  14 1

