# MOL2 file generated by ConQuest
# Please check atom types

@<TRIPOS>MOLECULE
ZONKES
    40    41     1
SMALL
NO_CHARGES
****
Generated from CSD

@<TRIPOS>ATOM
      1 N1         2.4600    3.8311    7.0462 N.pl3     1 RES1    0.0000
      2 N2         7.5102    9.2659   10.8859 N.3       1 RES1    0.0000
      3 O1         5.3090    7.5431   10.0454 O.3       1 RES1    0.0000
      4 O2         1.7041    4.2682    6.1839 O.2       1 RES1    0.0000
      5 O3         2.5953    2.6347    7.2775 O.2       1 RES1    0.0000
      6 O4         5.0739   13.4656    8.1635 O.3       1 RES1    0.0000
      7 C1         3.8116    7.0490    8.3662 C.ar      1 RES1    0.0000
      8 C2         6.9607   10.3149   10.1742 C.ar      1 RES1    0.0000
      9 C3         3.0575    6.1825    7.6157 C.ar      1 RES1    0.0000
     10 C4         4.8223    5.2046    9.5479 C.ar      1 RES1    0.0000
     11 C5         5.6034   10.6240   10.3505 C.ar      1 RES1    0.0000
     12 C6         3.2149    4.8114    7.8356 C.ar      1 RES1    0.0000
     13 C7         4.6649    6.5744    9.3470 C.ar      1 RES1    0.0000
     14 C8         6.7574    8.3631   11.7273 C.3       1 RES1    0.0000
     15 C9         5.7587   12.4322    8.8135 C.ar      1 RES1    0.0000
     16 C10        5.0135   11.6975    9.6957 C.ar      1 RES1    0.0000
     17 C11        4.0838    4.3057    8.7993 C.ar      1 RES1    0.0000
     18 C12        6.2591    7.1098   11.0763 C.3       1 RES1    0.0000
     19 C13        7.1120   12.1748    8.6316 C.ar      1 RES1    0.0000
     20 C14        7.6934   11.1129    9.2854 C.ar      1 RES1    0.0000
     21 C15        8.8774    8.8921   10.5902 C.3       1 RES1    0.0000
     22 C16        5.7929   14.2481    7.2680 C.3       1 RES1    0.0000
     23 H1         3.6606    8.1096    8.1492 H         1 RES1    0.0000
     24 H2         2.4675    6.5705    6.9174 H         1 RES1    0.0000
     25 H3         5.3796    4.8632   10.2055 H         1 RES1    0.0000
     26 H4         4.9936   10.1015   10.8878 H         1 RES1    0.0000
     27 H5         6.0144    9.0667   12.1101 H         1 RES1    0.0000
     28 H6         7.3762    8.0838   12.4797 H         1 RES1    0.0000
     29 H7         4.0253   11.8475    9.9117 H         1 RES1    0.0000
     30 H8         4.1702    3.2723    8.8884 H         1 RES1    0.0000
     31 H9         7.1438    6.5963   10.5751 H         1 RES1    0.0000
     32 H10        5.6313    6.5187   11.7785 H         1 RES1    0.0000
     33 H11        7.5427   12.7012    8.0355 H         1 RES1    0.0000
     34 H12        8.7247   10.8387    9.1063 H         1 RES1    0.0000
     35 H13        9.1606    8.0838   11.1626 H         1 RES1    0.0000
     36 H14        8.9491    8.3683    9.6464 H         1 RES1    0.0000
     37 H15        9.4770    9.5841   10.7172 H         1 RES1    0.0000
     38 H16        5.1318   14.8224    6.8605 H         1 RES1    0.0000
     39 H17        6.4588   14.6413    7.7892 H         1 RES1    0.0000
     40 H18        6.1299   13.6583    6.4720 H         1 RES1    0.0000
@<TRIPOS>BOND
     1    1    4 2
     2    2    8 1
     3    3   13 1
     4    5    1 2
     5    6   15 1
     6    7    9 ar
     7    8   11 ar
     8    9   12 ar
     9   10   13 ar
    10   11   16 ar
    11   12    1 1
    12   13    7 ar
    13   14    2 1
    14   15   16 ar
    15   16   29 1
    16   17   10 ar
    17   18    3 1
    18   19   15 ar
    19   20    8 ar
    20   21    2 1
    21   22    6 1
    22   23    7 1
    23   24    9 1
    24   25   10 1
    25   26   11 1
    26   27   14 1
    27   28   14 1
    28   30   17 1
    29   31   18 1
    30   32   18 1
    31   33   19 1
    32   34   20 1
    33   35   21 1
    34   36   21 1
    35   37   21 1
    36   38   22 1
    37   39   22 1
    38   40   22 1
    39   12   17 ar
    40   14   18 1
    41   19   20 ar
@<TRIPOS>SUBSTRUCTURE
     1 RES1 1

@<TRIPOS>CRYSIN
  12.5790   12.9340   10.2050  90.0000 111.7900  90.0000 231 1

