# MOL2 file generated by ConQuest
# Please check atom types

@<TRIPOS>MOLECULE
ZONKAO
    40    41     1
SMALL
NO_CHARGES
****
Generated from CSD

@<TRIPOS>ATOM
      1 O1         9.2090    3.2761    7.7141 O.3       1 RES1    0.0000
      2 O2         6.4521   -0.6414   11.6472 O.2       1 RES1    0.0000
      3 O3        10.3440    6.4051    6.4647 O.3       1 RES1    0.0000
      4 O4         5.9880    1.2040   12.6494 O.2       1 RES1    0.0000
      5 N1         6.4828    0.5783   11.7239 N.pl3     1 RES1    0.0000
      6 N2        12.9284    6.1368    2.3842 N.3       1 RES1    0.0000
      7 C1        12.2507    6.8679    3.3194 C.ar      1 RES1    0.0000
      8 C2         7.7507    0.6271    9.6368 C.ar      1 RES1    0.0000
      9 C3         7.1677    1.3209   10.6658 C.ar      1 RES1    0.0000
     10 C4         8.5091    2.6978    8.7260 C.ar      1 RES1    0.0000
     11 C5        11.6586    6.2415    4.4373 C.ar      1 RES1    0.0000
     12 C6        10.2563    4.9881    6.5207 C.3       1 RES1    0.0000
     13 C7        11.4314    8.9594    4.1803 C.ar      1 RES1    0.0000
     14 C8        10.8504    8.3445    5.2787 C.ar      1 RES1    0.0000
     15 C9        12.1102    8.2591    3.2184 C.ar      1 RES1    0.0000
     16 C10       10.9739    6.9648    5.3773 C.ar      1 RES1    0.0000
     17 C11        7.2257    2.6928   10.7413 C.ar      1 RES1    0.0000
     18 C12        7.9023    3.3888    9.7549 C.ar      1 RES1    0.0000
     19 C13        9.3775    4.7011    7.7202 C.3       1 RES1    0.0000
     20 C14        8.4317    1.3123    8.6639 C.ar      1 RES1    0.0000
     21 C15       13.5021    6.7545    1.2189 C.3       1 RES1    0.0000
     22 C16       13.0540    4.7018    2.5109 C.3       1 RES1    0.0000
     23 H1         9.8654    4.9938    8.5969 H         1 RES1    0.0000
     24 H2         8.5116    5.0799    7.5984 H         1 RES1    0.0000
     25 H3        11.7864    5.3382    4.5176 H         1 RES1    0.0000
     26 H4        12.4258    8.6674    2.4110 H         1 RES1    0.0000
     27 H5         6.8589    3.1355   11.3976 H         1 RES1    0.0000
     28 H6         7.9690    4.3481    9.8268 H         1 RES1    0.0000
     29 H7         7.6377   -0.3300    9.6076 H         1 RES1    0.0000
     30 H8         8.7857    0.8754    7.9515 H         1 RES1    0.0000
     31 H9        10.3758    8.8898    5.9423 H         1 RES1    0.0000
     32 H10       13.9182    6.1633    0.6819 H         1 RES1    0.0000
     33 H11       14.1222    7.4261    1.4612 H         1 RES1    0.0000
     34 H12       12.7784    7.2683    0.6210 H         1 RES1    0.0000
     35 H13       13.5603    4.3839    1.8265 H         1 RES1    0.0000
     36 H14       12.1211    4.2548    2.3623 H         1 RES1    0.0000
     37 H15       13.4732    4.4557    3.3974 H         1 RES1    0.0000
     38 H16       11.2618    9.9087    4.0427 H         1 RES1    0.0000
     39 H17       11.1458    4.5992    6.6486 H         1 RES1    0.0000
     40 H18        9.8239    4.6350    5.6988 H         1 RES1    0.0000
@<TRIPOS>BOND
     1    1   10 1
     2    2    5 2
     3    3   12 1
     4    4    5 2
     5    5    9 1
     6    6    7 1
     7    7   11 ar
     8    8    9 ar
     9    9   17 ar
    10   10   18 ar
    11   11   16 ar
    12   12   19 1
    13   13   14 ar
    14   14   16 ar
    15   15    7 ar
    16   16    3 1
    17   17   18 ar
    18   18   28 1
    19   19    1 1
    20   20    8 ar
    21   21    6 1
    22   22    6 1
    23   23   19 1
    24   24   19 1
    25   25   11 1
    26   26   15 1
    27   27   17 1
    28   29    8 1
    29   30   20 1
    30   31   14 1
    31   32   21 1
    32   33   21 1
    33   34   21 1
    34   35   22 1
    35   36   22 1
    36   37   22 1
    37   38   13 1
    38   39   12 1
    39   40   12 1
    40   10   20 ar
    41   13   15 ar
@<TRIPOS>SUBSTRUCTURE
     1 RES1 1

@<TRIPOS>CRYSIN
  17.0520    7.1750   12.1890  90.0000  92.5500  90.0000  14 2

