# MOL2 file generated by ConQuest
# Please check atom types

@<TRIPOS>MOLECULE
ZOPYOU
    75    77     1
SMALL
NO_CHARGES
****
Generated from CSD

@<TRIPOS>ATOM
      1 C1        12.5802    8.7700    1.8802 C.3       1 RES1    0.0000
      2 C2        13.3527    7.9588    2.9744 C.3       1 RES1    0.0000
      3 H1        13.4965    8.5705    3.7530 H         1 RES1    0.0000
      4 C3        12.2946    6.9129    3.3992 C.3       1 RES1    0.0000
      5 H2        12.2839    6.1812    2.7176 H         1 RES1    0.0000
      6 C4        10.9335    7.6500    3.3452 C.3       1 RES1    0.0000
      7 H3        10.2463    7.0762    2.9226 H         1 RES1    0.0000
      8 H4        10.6322    7.8853    4.2577 H         1 RES1    0.0000
      9 C5        11.1582    8.9290    2.5053 C.3       1 RES1    0.0000
     10 H5        10.4773    8.9705    1.7746 H         1 RES1    0.0000
     11 C6        11.0512   10.1792    3.3670 C.3       1 RES1    0.0000
     12 H6        11.7028   10.1464    4.1120 H         1 RES1    0.0000
     13 H7        11.2252   10.9914    2.8278 H         1 RES1    0.0000
     14 C7         8.4397   12.1777    3.9668 C.3       1 RES1    0.0000
     15 C8         8.1733   13.4189    4.8275 C.3       1 RES1    0.0000
     16 H8         8.9600   14.0179    4.7766 H         1 RES1    0.0000
     17 H9         7.3992   13.9082    4.4520 H         1 RES1    0.0000
     18 C9         7.8921   13.1033    6.2864 C.3       1 RES1    0.0000
     19 H10        7.0409   12.6045    6.3641 H         1 RES1    0.0000
     20 H11        7.8074   13.9444    6.8012 H         1 RES1    0.0000
     21 C10        9.0318   12.2679    6.8471 C.3       1 RES1    0.0000
     22 H12        8.8313   12.0429    7.7904 H         1 RES1    0.0000
     23 H13        9.8615   12.8080    6.8356 H         1 RES1    0.0000
     24 C11        9.2722   10.9689    6.0651 C.3       1 RES1    0.0000
     25 C12        7.1386   11.4177    3.6749 C.3       1 RES1    0.0000
     26 H14        7.3518   10.5330    3.3124 H         1 RES1    0.0000
     27 H15        6.6071   11.9197    3.0221 H         1 RES1    0.0000
     28 H16        6.6270   11.3166    4.5041 H         1 RES1    0.0000
     29 C13        9.0377   12.6352    2.6350 C.3       1 RES1    0.0000
     30 H17        9.8787   13.1118    2.8006 H         1 RES1    0.0000
     31 H18        8.4076   13.2338    2.1822 H         1 RES1    0.0000
     32 H19        9.2104   11.8538    2.0696 H         1 RES1    0.0000
     33 C14        8.1406    9.9480    6.2832 C.3       1 RES1    0.0000
     34 H20        7.2741   10.3951    6.1864 H         1 RES1    0.0000
     35 H21        8.2126    9.5674    7.1839 H         1 RES1    0.0000
     36 H22        8.2148    9.2321    5.6189 H         1 RES1    0.0000
     37 C15       10.5722   10.3262    6.5597 C.3       1 RES1    0.0000
     38 H23       10.6791    9.4441    6.1449 H         1 RES1    0.0000
     39 H24       10.5375   10.2271    7.5345 H         1 RES1    0.0000
     40 H25       11.3312   10.8953    6.3155 H         1 RES1    0.0000
     41 C16       12.5770    6.3185    4.7087 C.1       1 RES1    0.0000
     42 C17       14.7027    7.3804    2.6000 C.ar      1 RES1    0.0000
     43 C18       15.8498    8.0284    3.0497 C.ar      1 RES1    0.0000
     44 H26       15.7686    8.7992    3.5979 H         1 RES1    0.0000
     45 C19       17.1113    7.5611    2.7059 C.ar      1 RES1    0.0000
     46 H27       17.8860    8.0184    3.0103 H         1 RES1    0.0000
     47 C20       17.2406    6.4319    1.9214 C.ar      1 RES1    0.0000
     48 H28       18.1037    6.1146    1.6811 H         1 RES1    0.0000
     49 C21       16.1128    5.7658    1.4880 C.ar      1 RES1    0.0000
     50 H29       16.2016    4.9838    0.9560 H         1 RES1    0.0000
     51 C22       14.8472    6.2312    1.8252 C.ar      1 RES1    0.0000
     52 H30       14.0764    5.7631    1.5259 H         1 RES1    0.0000
     53 C23       12.4866    7.9507    0.5974 C.2       1 RES1    0.0000
     54 C24       13.6248    7.2408   -1.3414 C.3       1 RES1    0.0000
     55 H31       12.8138    7.3473   -1.8990 H         1 RES1    0.0000
     56 H32       13.6842    6.2961   -1.0520 H         1 RES1    0.0000
     57 C25       14.8431    7.6177   -2.1246 C.3       1 RES1    0.0000
     58 H33       14.7807    8.5582   -2.3930 H         1 RES1    0.0000
     59 H34       14.9052    7.0534   -2.9238 H         1 RES1    0.0000
     60 H35       15.6409    7.4888   -1.5697 H         1 RES1    0.0000
     61 C26       13.2250   10.1235    1.6024 C.2       1 RES1    0.0000
     62 C27       13.1136   12.0060    0.1215 C.3       1 RES1    0.0000
     63 H36       13.2414   12.0241   -0.8601 H         1 RES1    0.0000
     64 H37       13.9846   12.2006    0.5509 H         1 RES1    0.0000
     65 C28       12.1212   13.0305    0.5162 C.3       1 RES1    0.0000
     66 H38       11.2417   12.7864    0.1611 H         1 RES1    0.0000
     67 H39       12.3894   13.9008    0.1540 H         1 RES1    0.0000
     68 H40       12.0774   13.0827    1.4939 H         1 RES1    0.0000
     69 N1         9.5056   11.3902    4.6562 N.3       1 RES1    0.0000
     70 N2        12.7730    5.8398    5.7278 N.1       1 RES1    0.0000
     71 O1         9.7104   10.1835    3.8684 O.3       1 RES1    0.0000
     72 O2        11.5792    7.1941    0.3477 O.2       1 RES1    0.0000
     73 O3        13.5541    8.1184   -0.1808 O.3       1 RES1    0.0000
     74 O4        14.0832   10.6286    2.2644 O.2       1 RES1    0.0000
     75 O5        12.6429   10.6840    0.5345 O.3       1 RES1    0.0000
@<TRIPOS>BOND
     1    1    2 1
     2    2    3 1
     3    4    2 1
     4    5    4 1
     5    6    4 1
     6    7    6 1
     7    8    6 1
     8    9    1 1
     9   10    9 1
    10   11    9 1
    11   12   11 1
    12   13   11 1
    13   14   15 1
    14   15   16 1
    15   17   15 1
    16   18   15 1
    17   19   18 1
    18   20   18 1
    19   21   18 1
    20   22   21 1
    21   23   21 1
    22   24   21 1
    23   25   14 1
    24   26   25 1
    25   27   25 1
    26   28   25 1
    27   29   14 1
    28   30   29 1
    29   31   29 1
    30   32   29 1
    31   33   24 1
    32   34   33 1
    33   35   33 1
    34   36   33 1
    35   37   24 1
    36   38   37 1
    37   39   37 1
    38   40   37 1
    39   41    4 1
    40   42    2 1
    41   43   42 ar
    42   44   43 1
    43   45   43 ar
    44   46   45 1
    45   47   45 ar
    46   48   47 1
    47   49   47 ar
    48   50   49 1
    49   51   42 ar
    50   52   51 1
    51   53    1 1
    52   54   55 1
    53   56   54 1
    54   57   54 1
    55   58   57 1
    56   59   57 1
    57   60   57 1
    58   61    1 1
    59   62   63 1
    60   64   62 1
    61   65   62 1
    62   66   65 1
    63   67   65 1
    64   68   65 1
    65   69   14 1
    66   70   41 3
    67   71   11 1
    68   72   53 2
    69   73   53 1
    70   74   61 2
    71   75   61 1
    72    6    9 1
    73   24   69 1
    74   49   51 ar
    75   54   73 1
    76   62   75 1
    77   69   71 1
@<TRIPOS>SUBSTRUCTURE
     1 RES1 1

@<TRIPOS>CRYSIN
   9.9857   12.2276   12.6579  69.3800  81.4790  66.1060   2 1

