# MOL2 file generated by ConQuest
# Please check atom types

@<TRIPOS>MOLECULE
ZOPYUA
    89    91     1
SMALL
NO_CHARGES
****
Generated from CSD

@<TRIPOS>ATOM
      1 C1        -1.2063    3.2089   11.8265 C.3       1 RES1    0.0000
      2 C2        -0.7371    2.9378   13.2981 C.3       1 RES1    0.0000
      3 H1        -1.1547    2.0613   13.5408 H         1 RES1    0.0000
      4 C3         0.7820    2.6720   13.3366 C.3       1 RES1    0.0000
      5 H2         1.2692    3.4629   12.9676 H         1 RES1    0.0000
      6 C4         1.1197    1.4250   12.5018 C.3       1 RES1    0.0000
      7 H3         2.1031    1.3170   12.4748 H         1 RES1    0.0000
      8 H4         0.7437    0.6283   12.9533 H         1 RES1    0.0000
      9 C5         0.5918    1.4717   11.0699 C.3       1 RES1    0.0000
     10 C6        -0.9048    1.9047   11.0108 C.3       1 RES1    0.0000
     11 H5        -1.4013    1.1817   11.4893 H         1 RES1    0.0000
     12 C7         2.3399   -1.4572   10.3140 C.3       1 RES1    0.0000
     13 C8         2.9079   -2.7256   10.9639 C.3       1 RES1    0.0000
     14 H6         3.6294   -3.0835   10.3886 H         1 RES1    0.0000
     15 H7         3.3100   -2.4842   11.8352 H         1 RES1    0.0000
     16 C9         1.8752   -3.8123   11.1853 C.3       1 RES1    0.0000
     17 H8         1.5173   -4.1226   10.3159 H         1 RES1    0.0000
     18 H9         2.2890   -4.5842   11.6457 H         1 RES1    0.0000
     19 C10        0.7598   -3.2437   12.0312 C.3       1 RES1    0.0000
     20 H10        1.1209   -3.0183   12.9249 H         1 RES1    0.0000
     21 H11        0.0662   -3.9390   12.1542 H         1 RES1    0.0000
     22 C11        0.1005   -1.9871   11.4331 C.3       1 RES1    0.0000
     23 C12        3.4403   -0.3978   10.3551 C.3       1 RES1    0.0000
     24 H12        3.1830    0.3625    9.7932 H         1 RES1    0.0000
     25 H13        4.2767   -0.7830   10.0206 H         1 RES1    0.0000
     26 H14        3.5668   -0.0942   11.2777 H         1 RES1    0.0000
     27 C13        2.0010   -1.7097    8.8349 C.3       1 RES1    0.0000
     28 H15        1.4838   -2.5374    8.7556 H         1 RES1    0.0000
     29 H16        2.8301   -1.7907    8.3197 H         1 RES1    0.0000
     30 H17        1.4731   -0.9594    8.4887 H         1 RES1    0.0000
     31 C14       -0.7698   -2.3390   10.2134 C.3       1 RES1    0.0000
     32 H18       -1.0020   -1.5176    9.7300 H         1 RES1    0.0000
     33 H19       -1.5893   -2.7839   10.5149 H         1 RES1    0.0000
     34 H20       -0.2721   -2.9385    9.6195 H         1 RES1    0.0000
     35 C15       -0.8304   -1.4398   12.5219 C.3       1 RES1    0.0000
     36 H21       -0.2992   -1.1696   13.3008 H         1 RES1    0.0000
     37 H22       -1.4683   -2.1362   12.7859 H         1 RES1    0.0000
     38 H23       -1.3185   -0.6646   12.1748 H         1 RES1    0.0000
     39 C16        1.2141    2.4347   14.7710 C.2       1 RES1    0.0000
     40 C17       -1.2296    3.9107   14.3641 C.ar      1 RES1    0.0000
     41 C18       -2.3232    3.5250   15.1391 C.ar      1 RES1    0.0000
     42 H24       -2.7475    2.6945   14.9654 H         1 RES1    0.0000
     43 C19       -2.8020    4.3326   16.1580 C.ar      1 RES1    0.0000
     44 H25       -3.5526    4.0550   16.6710 H         1 RES1    0.0000
     45 C20       -2.1883    5.5399   16.4281 C.ar      1 RES1    0.0000
     46 H26       -2.5085    6.0921   17.1322 H         1 RES1    0.0000
     47 C21       -1.1070    5.9389   15.6693 C.ar      1 RES1    0.0000
     48 H27       -0.6887    6.7736   15.8466 H         1 RES1    0.0000
     49 C22       -0.6234    5.1284   14.6449 C.ar      1 RES1    0.0000
     50 H28        0.1269    5.4107   14.1347 H         1 RES1    0.0000
     51 C23       -2.7313    3.3803   11.9429 C.2       1 RES1    0.0000
     52 C24       -4.4585    4.9556   12.3117 C.3       1 RES1    0.0000
     53 H29       -4.7306    4.5431   13.1697 H         1 RES1    0.0000
     54 H30       -5.0336    4.5939   11.5920 H         1 RES1    0.0000
     55 C25       -4.5923    6.4457   12.3865 C.3       1 RES1    0.0000
     56 H31       -4.0178    6.7905   13.1018 H         1 RES1    0.0000
     57 H32       -5.5246    6.6818   12.5759 H         1 RES1    0.0000
     58 H33       -4.3219    6.8413   11.5320 H         1 RES1    0.0000
     59 C26       -0.6165    4.4887   11.2207 C.2       1 RES1    0.0000
     60 C27       -0.7668    5.9295    9.3107 C.3       1 RES1    0.0000
     61 H34        0.0239    6.3362    9.7458 H         1 RES1    0.0000
     62 H35       -1.4985    6.5972    9.3052 H         1 RES1    0.0000
     63 C28       -0.4300    5.5245    7.9104 C.3       1 RES1    0.0000
     64 H36        0.3420    4.9201    7.9217 H         1 RES1    0.0000
     65 H37       -0.2136    6.3217    7.3832 H         1 RES1    0.0000
     66 H38       -1.1973    5.0651    7.5095 H         1 RES1    0.0000
     67 C29       -1.4637    1.8895    9.5824 C.3       1 RES1    0.0000
     68 H39       -0.9677    2.5301    9.0304 H         1 RES1    0.0000
     69 H40       -2.4116    2.1386    9.5989 H         1 RES1    0.0000
     70 H41       -1.3695    0.9908    9.2041 H         1 RES1    0.0000
     71 C30        1.4665    2.3518   10.1717 C.3       1 RES1    0.0000
     72 H42        2.4112    2.1797   10.3665 H         1 RES1    0.0000
     73 H43        1.2645    3.2962   10.3428 H         1 RES1    0.0000
     74 H44        1.2826    2.1435    9.2325 H         1 RES1    0.0000
     75 C31        0.6622    1.1914   16.7337 C.3       1 RES1    0.0000
     76 H45        0.4773    2.0082   17.2601 H         1 RES1    0.0000
     77 H46        1.5880    0.8965   16.9221 H         1 RES1    0.0000
     78 C32       -0.3122    0.1119   17.0813 C.3       1 RES1    0.0000
     79 H47       -1.2205    0.4108   16.8684 H         1 RES1    0.0000
     80 H48       -0.2494   -0.0894   18.0387 H         1 RES1    0.0000
     81 H49       -0.1049   -0.6935   16.5652 H         1 RES1    0.0000
     82 N1         1.1933   -0.9838   11.1684 N.3       1 RES1    0.0000
     83 O1         0.5778    0.1288   10.4500 O.3       1 RES1    0.0000
     84 O2        -3.5082    2.4697   12.0356 O.2       1 RES1    0.0000
     85 O3        -3.0630    4.6680   12.0337 O.3       1 RES1    0.0000
     86 O4         0.2479    5.1663   11.7114 O.2       1 RES1    0.0000
     87 O5        -1.1814    4.7408   10.0392 O.3       1 RES1    0.0000
     88 O6         2.0766    3.0323   15.3513 O.2       1 RES1    0.0000
     89 O7         0.4897    1.4497   15.3204 O.3       1 RES1    0.0000
@<TRIPOS>BOND
     1    1    2 1
     2    2    3 1
     3    4    2 1
     4    5    4 1
     5    6    4 1
     6    7    6 1
     7    8    6 1
     8    9    6 1
     9   10    1 1
    10   11   10 1
    11   12   13 1
    12   13   14 1
    13   15   13 1
    14   16   13 1
    15   17   16 1
    16   18   16 1
    17   19   16 1
    18   20   19 1
    19   21   19 1
    20   22   19 1
    21   23   12 1
    22   24   23 1
    23   25   23 1
    24   26   23 1
    25   27   12 1
    26   28   27 1
    27   29   27 1
    28   30   27 1
    29   31   22 1
    30   32   31 1
    31   33   31 1
    32   34   31 1
    33   35   22 1
    34   36   35 1
    35   37   35 1
    36   38   35 1
    37   39    4 1
    38   40    2 1
    39   41   40 ar
    40   42   41 1
    41   43   41 ar
    42   44   43 1
    43   45   43 ar
    44   46   45 1
    45   47   45 ar
    46   48   47 1
    47   49   40 ar
    48   50   49 1
    49   51    1 1
    50   52   53 1
    51   54   52 1
    52   55   52 1
    53   56   55 1
    54   57   55 1
    55   58   55 1
    56   59    1 1
    57   60   61 1
    58   62   60 1
    59   63   60 1
    60   64   63 1
    61   65   63 1
    62   66   63 1
    63   67   10 1
    64   68   67 1
    65   69   67 1
    66   70   67 1
    67   71    9 1
    68   72   71 1
    69   73   71 1
    70   74   71 1
    71   75   76 1
    72   77   75 1
    73   78   75 1
    74   79   78 1
    75   80   78 1
    76   81   78 1
    77   82   12 1
    78   83    9 1
    79   84   51 2
    80   85   51 1
    81   86   59 2
    82   87   59 1
    83   88   39 2
    84   89   39 1
    85    9   10 1
    86   22   82 1
    87   47   49 ar
    88   52   85 1
    89   60   87 1
    90   75   89 1
    91   82   83 1
@<TRIPOS>SUBSTRUCTURE
     1 RES1 1

@<TRIPOS>CRYSIN
   8.1146   24.1655   15.9385  90.0000  97.7500  90.0000 231 1

