# MOL2 file generated by ConQuest
# Please check atom types

@<TRIPOS>MOLECULE
ZORJEV
    31    32     1
SMALL
NO_CHARGES
****
Generated from CSD

@<TRIPOS>ATOM
      1 O1         0.5877    3.2514    5.0071 O.3       1 RES1    0.0000
      2 O2         2.3017    4.1715    5.9929 O.2       1 RES1    0.0000
      3 O3         2.1689    6.7433    6.4698 O.2       1 RES1    0.0000
      4 O4         1.2189    7.8088    4.8168 O.2       1 RES1    0.0000
      5 O5        -1.5960    6.0681    1.0796 O.2       1 RES1    0.0000
      6 O6        -0.5242    7.8415    1.7092 O.2       1 RES1    0.0000
      7 O7        -2.9050    3.8168    2.7406 O.2       1 RES1    0.0000
      8 O8        -3.0961    5.8306    3.5631 O.2       1 RES1    0.0000
      9 N1         1.2947    4.4327    5.3339 N.pl3     1 RES1    0.0000
     10 N2         1.4606    6.7834    5.4705 N.pl3     1 RES1    0.0000
     11 N3        -0.7147    6.6350    1.7172 N.pl3     1 RES1    0.0000
     12 N4        -2.5104    4.7399    3.4452 N.pl3     1 RES1    0.0000
     13 C1        -1.2565    4.5885    4.2676 C.3       1 RES1    0.0000
     14 C2        -0.3337    5.7535    4.0346 C.3       1 RES1    0.0000
     15 C3         0.2210    5.7787    2.5826 C.3       1 RES1    0.0000
     16 C4         0.4633    4.4386    1.9610 C.2       1 RES1    0.0000
     17 C5         0.1821    3.3138    2.6174 C.2       1 RES1    0.0000
     18 C6        -0.5016    3.2974    3.9703 C.3       1 RES1    0.0000
     19 C7         0.7996    5.5873    4.9669 C.2       1 RES1    0.0000
     20 C8         1.1625    4.5292    0.6349 C.3       1 RES1    0.0000
     21 C9         0.5858    1.9411    2.0869 C.3       1 RES1    0.0000
     22 C10       -1.2630    2.0420    4.3561 C.3       1 RES1    0.0000
     23 H1        -1.5150    4.5841    5.2348 H         1 RES1    0.0000
     24 H2        -0.8113    6.6097    4.2328 H         1 RES1    0.0000
     25 H3         1.1022    6.2506    2.6147 H         1 RES1    0.0000
     26 H4         2.0568    4.9106    0.7608 H         1 RES1    0.0000
     27 H5         0.6461    5.1050    0.0321 H         1 RES1    0.0000
     28 H6         1.2409    3.6343    0.2438 H         1 RES1    0.0000
     29 H7        -0.2100    1.4662    1.7681 H         1 RES1    0.0000
     30 H8         1.0076    1.4246    2.8049 H         1 RES1    0.0000
     31 H9         1.2202    2.0494    1.3475 H         1 RES1    0.0000
@<TRIPOS>BOND
     1    1    9 1
     2    2    9 1
     3    3   10 2
     4    4   10 2
     5    5   11 2
     6    6   11 2
     7    7   12 2
     8    8   12 2
     9    9   19 2
    10   10   19 1
    11   11   15 1
    12   12   13 1
    13   13   14 1
    14   14   15 1
    15   15   16 1
    16   16   17 2
    17   17   18 1
    18   18    1 1
    19   19   14 1
    20   20   16 1
    21   21   17 1
    22   22   18 1
    23   23   13 1
    24   24   14 1
    25   25   15 1
    26   26   20 1
    27   27   20 1
    28   28   20 1
    29   29   21 1
    30   30   21 1
    31   31   21 1
    32   13   18 1
@<TRIPOS>SUBSTRUCTURE
     1 RES1 1

@<TRIPOS>CRYSIN
   6.4800   14.8400   26.7900  90.0000  90.0000  90.0000  61 1

