# MOL2 file generated by ConQuest
# Please check atom types

@<TRIPOS>MOLECULE
ZORJOF
    30    30     1
SMALL
NO_CHARGES
****
Generated from CSD

@<TRIPOS>ATOM
      1 C1         6.5911    0.1046    5.1917 C.ar      1 RES1    0.0000
      2 C2         6.1273    0.1174    3.8796 C.ar      1 RES1    0.0000
      3 C3         7.0008    0.1280    2.8226 C.ar      1 RES1    0.0000
      4 C4         8.3860    0.1069    3.0677 C.ar      1 RES1    0.0000
      5 C5         8.8533    0.0866    4.3814 C.ar      1 RES1    0.0000
      6 C6         7.9566    0.0836    5.4334 C.ar      1 RES1    0.0000
      7 C7         5.6021    0.0565    6.2887 C.3       1 RES1    0.0000
      8 C8         6.4542    0.1807    1.4238 C.3       1 RES1    0.0000
      9 C9         9.3426    0.0956    1.9139 C.3       1 RES1    0.0000
     10 C10       10.3276    0.0632    4.6932 C.3       1 RES1    0.0000
     11 N1         6.2241   -0.0557    7.6625 N.pl3     1 RES1    0.0000
     12 N2         4.6325   -1.1307    6.0836 N.pl3     1 RES1    0.0000
     13 N3         4.6811    1.2911    6.4221 N.pl3     1 RES1    0.0000
     14 O1         6.1316   -1.0893    8.2710 O.2       1 RES1    0.0000
     15 O2         6.8107    0.9387    8.0326 O.2       1 RES1    0.0000
     16 O3         5.1503   -2.2072    5.9886 O.2       1 RES1    0.0000
     17 O4         3.4596   -0.8778    5.9819 O.2       1 RES1    0.0000
     18 O5         4.6334    2.0484    5.4884 O.2       1 RES1    0.0000
     19 O6         4.0684    1.3761    7.4591 O.2       1 RES1    0.0000
     20 H1         5.1914    0.1197    3.7129 H         1 RES1    0.0000
     21 H2         8.2782    0.0670    6.3270 H         1 RES1    0.0000
     22 H3         6.7418   -0.6158    0.9303 H         1 RES1    0.0000
     23 H4         6.7893    0.9832    0.9720 H         1 RES1    0.0000
     24 H5         5.4748    0.2078    1.4571 H         1 RES1    0.0000
     25 H6         9.1476    0.8499    1.3188 H         1 RES1    0.0000
     26 H7         9.2467   -0.7438    1.4171 H         1 RES1    0.0000
     27 H8        10.2607    0.1731    2.2491 H         1 RES1    0.0000
     28 H9        10.4551    0.0339    5.6652 H         1 RES1    0.0000
     29 H10       10.7504    0.8702    4.3331 H         1 RES1    0.0000
     30 H11       10.7355   -0.7295    4.2864 H         1 RES1    0.0000
@<TRIPOS>BOND
     1    1    2 ar
     2    2    3 ar
     3    3    4 ar
     4    4    5 ar
     5    5    6 ar
     6    6    1 ar
     7    7    1 1
     8    8    3 1
     9    9    4 1
    10   10    5 1
    11   11    7 1
    12   12    7 1
    13   13    7 1
    14   14   11 2
    15   15   11 2
    16   16   12 2
    17   17   12 2
    18   18   13 2
    19   19   13 2
    20   20    2 1
    21   21    6 1
    22   22    8 1
    23   23    8 1
    24   24    8 1
    25   25    9 1
    26   26    9 1
    27   27    9 1
    28   28   10 1
    29   29   10 1
    30   30   10 1
@<TRIPOS>SUBSTRUCTURE
     1 RES1 1

@<TRIPOS>CRYSIN
   9.6020    7.5280   16.9230  90.0000  99.8800  90.0000  14 1

