# MOL2 file generated by ConQuest
# Please check atom types

@<TRIPOS>MOLECULE
ZOSKAT
    36    36     2
SMALL
NO_CHARGES
****
Generated from CSD

@<TRIPOS>ATOM
      1 O1         8.3456    2.2307    1.3327 O.2       1 RES1    0.0000
      2 O2         8.3906    1.1844   -0.5365 O.2       1 RES1    0.0000
      3 N1         2.2884    2.4181   -0.2837 N.3       1 RES1    0.0000
      4 N2         1.9223    1.1708    2.2629 N.3       1 RES1    0.0000
      5 N3         7.7628    1.6965    0.3875 N.pl3     1 RES1    0.0000
      6 C1         3.5706    1.9954   -0.0434 C.ar      1 RES1    0.0000
      7 C2         4.4233    1.7465   -1.1101 C.ar      1 RES1    0.0000
      8 C3         5.7669    1.5835   -0.9239 C.ar      1 RES1    0.0000
      9 C4         6.3354    1.6993    0.3414 C.ar      1 RES1    0.0000
     10 C5         6.0082    1.8388    2.8073 C.ar      1 RES1    0.0000
     11 C6         5.1554    1.7880    3.8820 C.ar      1 RES1    0.0000
     12 C7         3.7955    1.5992    3.6975 C.ar      1 RES1    0.0000
     13 C8         3.2495    1.5155    2.4455 C.ar      1 RES1    0.0000
     14 C9         4.0880    1.7873    1.3097 C.ar      1 RES1    0.0000
     15 C10        5.5256    1.8030    1.5118 C.ar      1 RES1    0.0000
     16 C11        1.6994    2.2765   -1.5774 C.3       1 RES1    0.0000
     17 C12        1.6278    3.3972    0.5675 C.3       1 RES1    0.0000
     18 C13        1.5869    0.0737    1.3655 C.3       1 RES1    0.0000
     19 C14        1.0184    1.3095    3.3801 C.3       1 RES1    0.0000
     20 H1         4.0900    1.8023   -2.0837 H         1 RES1    0.0000
     21 H2         6.3190    1.4876   -1.7291 H         1 RES1    0.0000
     22 H3         6.9325    1.8667    3.0059 H         1 RES1    0.0000
     23 H4         5.5011    1.8524    4.8680 H         1 RES1    0.0000
     24 H5         3.2516    1.5234    4.5222 H         1 RES1    0.0000
     25 H6         1.9427    1.3875   -2.0039 H         1 RES1    0.0000
     26 H7         0.7157    2.4960   -1.5783 H         1 RES1    0.0000
     27 H8         1.9632    3.0825   -2.0837 H         1 RES1    0.0000
     28 H9         2.2290    3.6189    1.3478 H         1 RES1    0.0000
     29 H10        1.4520    4.2054    0.0089 H         1 RES1    0.0000
     30 H11        0.7362    3.1612    0.8335 H         1 RES1    0.0000
     31 H12        2.1881   -0.0286    0.5764 H         1 RES1    0.0000
     32 H13        1.5951   -0.8225    1.7202 H         1 RES1    0.0000
     33 H14        0.7976    0.1860    0.9222 H         1 RES1    0.0000
     34 H15        1.0839    2.2171    3.8305 H         1 RES1    0.0000
     35 H16        1.4315    1.3660    3.0236 Du        2 SUP2    0.0000
     36 H17        1.1043    0.6580    4.0611 H         1 RES1    0.0000
@<TRIPOS>BOND
     1    1    5 2
     2    2    5 2
     3    3    6 1
     4    4   13 1
     5    5    9 1
     6    6    7 ar
     7    7    8 ar
     8    8    9 ar
     9    9   15 ar
    10   10   11 ar
    11   11   12 ar
    12   12   13 ar
    13   13   14 ar
    14   14    6 ar
    15   15   10 ar
    16   16    3 1
    17   17    3 1
    18   18    4 1
    19   19    4 1
    20   20    7 1
    21   21    8 1
    22   22   10 1
    23   23   11 1
    24   24   12 1
    25   25   16 1
    26   26   16 1
    27   27   16 1
    28   28   17 1
    29   29   17 1
    30   30   17 1
    31   31   18 1
    32   32   18 1
    33   33   18 1
    34   34   19 1
    35   36   19 1
    36   14   15 ar
@<TRIPOS>SUBSTRUCTURE
     1 RES1 1
     2 SUP2 35

@<TRIPOS>CRYSIN
  20.4500    7.1520    8.8670  90.0000  90.0000  90.0000  33 1

