# MOL2 file generated by ConQuest
# Please check atom types

@<TRIPOS>MOLECULE
ZOSTEG
    31    32     1
SMALL
NO_CHARGES
****
Generated from CSD

@<TRIPOS>ATOM
      1 N1         3.2525   -1.5708    1.8198 N.pl3     1 RES1    0.0000
      2 O1         3.5396   -1.5728    0.5461 O.2       1 RES1    0.0000
      3 O2         7.2643    1.1277    1.1207 O.3       1 RES1    0.0000
      4 C1         3.8446   -0.7933    2.6562 C.2       1 RES1    0.0000
      5 C2         4.9190    0.0752    2.3650 C.2       1 RES1    0.0000
      6 C3         5.5110    0.7676    3.3523 C.2       1 RES1    0.0000
      7 C4         6.6824    1.6243    3.3572 C.ar      1 RES1    0.0000
      8 C5         7.0014    2.3088    4.5299 C.ar      1 RES1    0.0000
      9 C6         8.0733    3.1120    4.6633 C.ar      1 RES1    0.0000
     10 C7         8.9129    3.2327    3.6004 C.ar      1 RES1    0.0000
     11 C8         8.6551    2.5818    2.3983 C.ar      1 RES1    0.0000
     12 C9         7.5463    1.7667    2.2699 C.ar      1 RES1    0.0000
     13 C10        2.2560   -2.5284    2.2042 C.ar      1 RES1    0.0000
     14 C11        2.2164   -3.7412    1.5649 C.ar      1 RES1    0.0000
     15 C12        1.2798   -4.6690    1.8845 C.ar      1 RES1    0.0000
     16 C13        0.3713   -4.4197    2.8817 C.ar      1 RES1    0.0000
     17 C14        0.4083   -3.2090    3.4965 C.ar      1 RES1    0.0000
     18 C15        1.3513   -2.2356    3.2092 C.ar      1 RES1    0.0000
     19 H1         3.4452   -0.7518    3.4023 H         1 RES1    0.0000
     20 H2         5.3464    0.0594    1.4315 H         1 RES1    0.0000
     21 H3         5.1295    0.7320    4.3044 H         1 RES1    0.0000
     22 H4         6.4438    2.1762    5.1084 H         1 RES1    0.0000
     23 H5         8.2812    3.7392    5.3339 H         1 RES1    0.0000
     24 H6         9.6466    3.8381    3.7847 H         1 RES1    0.0000
     25 H7         9.1872    2.5719    1.6472 H         1 RES1    0.0000
     26 H8         2.8582   -3.7392    0.9021 H         1 RES1    0.0000
     27 H9         1.2122   -5.5791    1.4806 H         1 RES1    0.0000
     28 H10       -0.2807   -5.1241    3.1572 H         1 RES1    0.0000
     29 H11       -0.1531   -3.0270    4.0985 H         1 RES1    0.0000
     30 H12        1.3143   -1.1277    3.5788 H         1 RES1    0.0000
     31 H13        7.9878    1.1475    0.4412 H         1 RES1    0.0000
@<TRIPOS>BOND
     1    1    2 1
     2    3   12 1
     3    4    1 2
     4    5    4 1
     5    6    5 2
     6    7    6 1
     7    8    7 ar
     8    9    8 ar
     9   10    9 ar
    10   11   10 ar
    11   12    7 ar
    12   13    1 1
    13   14   13 ar
    14   15   14 ar
    15   16   15 ar
    16   17   16 ar
    17   18   13 ar
    18   19    4 1
    19   20    5 1
    20   21    6 1
    21   22    8 1
    22   23    9 1
    23   24   10 1
    24   25   11 1
    25   26   14 1
    26   27   15 1
    27   28   16 1
    28   29   17 1
    29   30   18 1
    30   31    3 1
    31   11   12 ar
    32   17   18 ar
@<TRIPOS>SUBSTRUCTURE
     1 RES1 1

@<TRIPOS>CRYSIN
  12.7600   19.7840    9.8050  90.0000  90.0000  90.0000  60 3

