# MOL2 file generated by ConQuest
# Please check atom types

@<TRIPOS>MOLECULE
ZOYHOM
    59    61     1
SMALL
NO_CHARGES
****
Generated from CSD

@<TRIPOS>ATOM
      1 O1         5.2884    2.6892   11.6512 O.2       1 RES1    0.0000
      2 O2         5.2247    4.7578   10.9042 O.3       1 RES1    0.0000
      3 O3         5.5606    4.7393    7.6010 O.2       1 RES1    0.0000
      4 O4         7.2562    4.0264    8.8675 O.3       1 RES1    0.0000
      5 O5         1.2822    3.3489   14.9044 O.2       1 RES1    0.0000
      6 O6         2.1227    3.4682   12.9580 O.2       1 RES1    0.0000
      7 O7        -3.3062    3.1650   15.7260 O.2       1 RES1    0.0000
      8 O8        -4.6965    3.3986   14.1546 O.2       1 RES1    0.0000
      9 N1         0.3582    3.7480    9.5000 N.2       1 RES1    0.0000
     10 N2         0.6117    3.5755   10.8404 N.3       1 RES1    0.0000
     11 N3         1.1611    3.3979   13.7018 N.pl3     1 RES1    0.0000
     12 N4        -3.5759    3.2893   14.5521 N.pl3     1 RES1    0.0000
     13 C1         3.6767    2.9995    8.8298 C.3       1 RES1    0.0000
     14 H1         3.6811    2.9378    7.8518 H         1 RES1    0.0000
     15 C2         5.1546    3.0592    9.2871 C.3       1 RES1    0.0000
     16 C3         5.6380    1.5956    9.0928 C.3       1 RES1    0.0000
     17 H2         6.0831    1.4969    8.2362 H         1 RES1    0.0000
     18 H3         6.2593    1.3485    9.7951 H         1 RES1    0.0000
     19 C4         4.3890    0.7151    9.1504 C.3       1 RES1    0.0000
     20 H4         4.2855    0.2201    8.3229 H         1 RES1    0.0000
     21 H5         4.4543    0.0831    9.8832 H         1 RES1    0.0000
     22 C5         3.2040    1.6532    9.3612 C.3       1 RES1    0.0000
     23 H6         2.4279    1.3428    8.8702 H         1 RES1    0.0000
     24 H7         2.9760    1.7149   10.3022 H         1 RES1    0.0000
     25 C6         2.7949    4.1982    9.2008 C.3       1 RES1    0.0000
     26 H8         2.8078    4.3197   10.1634 H         1 RES1    0.0000
     27 H9         3.1584    5.0007    8.7941 H         1 RES1    0.0000
     28 C7         1.3680    4.0100    8.7430 C.2       1 RES1    0.0000
     29 C8         1.0598    4.1173    7.2930 C.ar      1 RES1    0.0000
     30 C9         1.9259    4.7543    6.4014 C.ar      1 RES1    0.0000
     31 H10        2.7258    5.1122    6.7133 H         1 RES1    0.0000
     32 C10        1.6105    4.8572    5.0670 C.ar      1 RES1    0.0000
     33 H11        2.1963    5.2904    4.4885 H         1 RES1    0.0000
     34 C11        0.4430    4.3296    4.5811 C.ar      1 RES1    0.0000
     35 H12        0.2363    4.4035    3.6770 H         1 RES1    0.0000
     36 C12       -0.4204    3.6905    5.4383 C.ar      1 RES1    0.0000
     37 H13       -1.2144    3.3305    5.1131 H         1 RES1    0.0000
     38 C13       -0.1171    3.5790    6.7803 C.ar      1 RES1    0.0000
     39 H14       -0.7064    3.1387    7.3486 H         1 RES1    0.0000
     40 C14       -0.3957    3.4924   11.7294 C.ar      1 RES1    0.0000
     41 C15       -0.1694    3.3866   13.1281 C.ar      1 RES1    0.0000
     42 C16       -1.2178    3.3120   14.0273 C.ar      1 RES1    0.0000
     43 H15       -1.0478    3.2389   14.9389 H         1 RES1    0.0000
     44 C17       -2.4957    3.3468   13.5707 C.ar      1 RES1    0.0000
     45 C18       -2.7689    3.4434   12.2072 C.ar      1 RES1    0.0000
     46 H16       -3.6499    3.4604   11.9078 H         1 RES1    0.0000
     47 C19       -1.7452    3.5130   11.3154 C.ar      1 RES1    0.0000
     48 H17       -1.9390    3.5755   10.4077 H         1 RES1    0.0000
     49 C20        5.2483    3.4547   10.7574 C.2       1 RES1    0.0000
     50 C21        5.2307    5.2726   12.2665 C.3       1 RES1    0.0000
     51 H18        5.2142    6.2320   12.2455 H         1 RES1    0.0000
     52 H19        6.0246    4.9758   12.7166 H         1 RES1    0.0000
     53 H20        4.4573    4.9488   12.7340 H         1 RES1    0.0000
     54 C22        5.9754    4.0434    8.4754 C.2       1 RES1    0.0000
     55 C23        8.1326    4.9829    8.2362 C.3       1 RES1    0.0000
     56 H21        9.0222    4.8785    8.5819 H         1 RES1    0.0000
     57 H22        7.8204    5.8727    8.4190 H         1 RES1    0.0000
     58 H23        8.1391    4.8345    7.2886 H         1 RES1    0.0000
     59 H24        1.4366    3.6358   11.1111 H         1 RES1    0.0000
@<TRIPOS>BOND
     1    1   49 2
     2    2   49 1
     3    3   54 2
     4    4   54 1
     5    5   11 2
     6    6   11 2
     7    7   12 2
     8    8   12 2
     9    9   10 1
    10   10   40 1
    11   11   41 1
    12   12   44 1
    13   13   14 1
    14   15   13 1
    15   16   15 1
    16   17   16 1
    17   18   16 1
    18   19   16 1
    19   20   19 1
    20   21   19 1
    21   22   13 1
    22   23   22 1
    23   24   22 1
    24   25   13 1
    25   26   25 1
    26   27   25 1
    27   28    9 2
    28   29   28 1
    29   30   29 ar
    30   31   30 1
    31   32   30 ar
    32   33   32 1
    33   34   32 ar
    34   35   34 1
    35   36   34 ar
    36   37   36 1
    37   38   29 ar
    38   39   38 1
    39   40   41 ar
    40   41   42 ar
    41   42   43 1
    42   44   42 ar
    43   45   44 ar
    44   46   45 1
    45   47   40 ar
    46   48   47 1
    47   49   15 1
    48   50    2 1
    49   51   50 1
    50   52   50 1
    51   53   50 1
    52   54   15 1
    53   55    4 1
    54   56   55 1
    55   57   55 1
    56   58   55 1
    57   59   10 1
    58   19   22 1
    59   25   28 1
    60   36   38 ar
    61   45   47 ar
@<TRIPOS>SUBSTRUCTURE
     1 RES1 1

@<TRIPOS>CRYSIN
  12.1850    7.1012   13.3980  90.0000  95.0200  90.0000   4 1

