# MOL2 file generated by ConQuest
# Please check atom types

@<TRIPOS>MOLECULE
ZTNONX
    19    22     1
SMALL
NO_CHARGES
****
Generated from CSD

@<TRIPOS>ATOM
      1 O1         2.1377    5.6250    4.4977 O.2       1 RES1    0.0000
      2 O2         1.3799    4.4508    2.1680 O.2       1 RES1    0.0000
      3 N1         1.9694    4.3847    4.3587 N.pl3     1 RES1    0.0000
      4 N2         1.6107    3.8180    3.2379 N.pl3     1 RES1    0.0000
      5 C1         1.9413    3.3417    5.4159 C.3       1 RES1    0.0000
      6 C2         0.4772    2.9704    5.6557 C.3       1 RES1    0.0000
      7 C3         0.0695    2.3182    4.3487 C.3       1 RES1    0.0000
      8 C4         1.3413    2.3833    3.5059 C.3       1 RES1    0.0000
      9 C5         2.3534    2.0869    4.6257 C.3       1 RES1    0.0000
     10 C6         1.7702    0.9195    5.3959 C.3       1 RES1    0.0000
     11 C7         0.3737    1.4648    5.5576 C.3       1 RES1    0.0000
     12 H1         2.4993    3.6450    6.1398 H         1 RES1    0.0000
     13 H2        -0.1250    3.5381    6.2125 H         1 RES1    0.0000
     14 H3        -0.8065    2.4300    3.9872 H         1 RES1    0.0000
     15 H4         1.4035    1.9051    2.6884 H         1 RES1    0.0000
     16 H5         3.2772    2.0801    4.3415 H         1 RES1    0.0000
     17 H6         2.2221    0.8554    6.2851 H         1 RES1    0.0000
     18 H7         1.7804    0.0778    4.8864 H         1 RES1    0.0000
     19 H8        -0.3730    1.0206    6.0126 H         1 RES1    0.0000
@<TRIPOS>BOND
     1    1    3 1
     2    2    4 1
     3    3    4 2
     4    4    8 1
     5    5    3 1
     6    6    5 1
     7    7    6 1
     8    8    7 1
     9    9    5 1
    10   10    9 1
    11   11    6 1
    12   12    5 1
    13   13    6 1
    14   14    7 1
    15   15    8 1
    16   16    9 1
    17   17   10 1
    18   18   10 1
    19   19   11 1
    20    7   11 1
    21    8    9 1
    22   10   11 1
@<TRIPOS>SUBSTRUCTURE
     1 RES1 1

@<TRIPOS>CRYSIN
   7.6600    9.7200    9.1000  90.0000  93.5500  90.0000 231 1

