# MOL2 file generated by ConQuest
# Please check atom types

@<TRIPOS>MOLECULE
ZUGPOJ
    17    17     1
SMALL
NO_CHARGES
****
Generated from CSD

@<TRIPOS>ATOM
      1 O1         4.1375    0.2257    0.5229 O.2       1 RES1    0.0000
      2 O2         3.0871    1.7621    1.6101 O.2       1 RES1    0.0000
      3 N1         6.5405   -1.3829    1.6362 N.1       1 RES1    0.0000
      4 N2         4.1035    1.2566    1.1761 N.pl3     1 RES1    0.0000
      5 C1         6.5405    1.2006    1.6362 C.ar      1 RES1    0.0000
      6 C2         5.3737    1.9399    1.4438 C.ar      1 RES1    0.0000
      7 C3         5.3619    3.3183    1.4648 C.ar      1 RES1    0.0000
      8 C4         6.5405    4.0026    1.6362 C.ar      1 RES1    0.0000
      9 C5         6.5405   -0.2500    1.6362 C.1       1 RES1    0.0000
     10 H1         4.5391    3.7191    1.3286 H         1 RES1    0.0000
     11 H2         6.5405    4.9017    1.6362 H         1 RES1    0.0000
     12 C2C        7.7073    1.9399    1.8287 C.ar      1 RES1    0.0000
     13 N2C        8.9775    1.2566    2.0964 N.pl3     1 RES1    0.0000
     14 O1C        8.9435    0.2257    2.7496 O.2       1 RES1    0.0000
     15 O2C        9.9939    1.7621    1.6624 O.2       1 RES1    0.0000
     16 C3C        7.7191    3.3183    1.8077 C.ar      1 RES1    0.0000
     17 H1C        8.5419    3.7191    1.9439 H         1 RES1    0.0000
@<TRIPOS>BOND
     1    1    4 2
     2    2    4 2
     3    3    9 3
     4    4    6 1
     5    5    6 ar
     6    6    7 ar
     7    7    8 ar
     8    8   11 1
     9    9    5 1
    10   10    7 1
    11   12    5 ar
    12   13   12 1
    13   14   13 2
    14   15   13 2
    15   16    8 ar
    16   17   16 1
    17   12   16 ar
@<TRIPOS>SUBSTRUCTURE
     1 RES1 1

@<TRIPOS>CRYSIN
  13.0810    9.0270    6.5450  90.0000  90.0000  90.0000  60 1

