# MOL2 file generated by ConQuest
# Please check atom types

@<TRIPOS>MOLECULE
ZUGXUW
    31    33     1
SMALL
NO_CHARGES
****
Generated from CSD

@<TRIPOS>ATOM
      1 O1        10.1947    1.1916   11.3419 O.3       1 RES1    0.0000
      2 C1        11.5187    0.8946   11.1130 C.ar      1 RES1    0.0000
      3 C2        11.9241   -0.0517   10.1765 C.ar      1 RES1    0.0000
      4 H1        11.2816   -0.5088    9.6469 H         1 RES1    0.0000
      5 C3        13.2757   -0.3212   10.0249 C.ar      1 RES1    0.0000
      6 H2        13.5740   -0.9548    9.3828 H         1 RES1    0.0000
      7 C4        14.1829    0.3492   10.8262 C.ar      1 RES1    0.0000
      8 N1        15.6112    0.1046   10.6296 N.pl3     1 RES1    0.0000
      9 O2        15.9570   -0.6197    9.6985 O.2       1 RES1    0.0000
     10 O3        16.4068    0.6323   11.4003 O.2       1 RES1    0.0000
     11 C5        13.7878    1.2586   11.7932 C.ar      1 RES1    0.0000
     12 H3        14.4307    1.6831   12.3495 H         1 RES1    0.0000
     13 C6        12.4395    1.5383   11.9342 C.ar      1 RES1    0.0000
     14 H4        12.1458    2.1636   12.5857 H         1 RES1    0.0000
     15 C7         9.2722    1.0411   10.3061 C.ar      1 RES1    0.0000
     16 C8         9.5219    1.4598    9.0330 C.ar      1 RES1    0.0000
     17 H5        10.3564    1.8602    8.8163 H         1 RES1    0.0000
     18 C9         8.5301    1.2949    8.0330 C.ar      1 RES1    0.0000
     19 C10        8.7664    1.6417    6.6787 C.ar      1 RES1    0.0000
     20 H6         9.5981    2.0272    6.4287 H         1 RES1    0.0000
     21 C11        7.8040    1.4240    5.7320 C.ar      1 RES1    0.0000
     22 H7         7.9818    1.6368    4.8235 H         1 RES1    0.0000
     23 C12        6.5518    0.8874    6.0912 C.ar      1 RES1    0.0000
     24 H8         5.8911    0.7447    5.4229 H         1 RES1    0.0000
     25 C13        6.2793    0.5705    7.3911 C.ar      1 RES1    0.0000
     26 H9         5.4229    0.2313    7.6251 H         1 RES1    0.0000
     27 C14        7.2665    0.7440    8.3965 C.ar      1 RES1    0.0000
     28 C15        7.0417    0.3667    9.7422 C.ar      1 RES1    0.0000
     29 H10        6.1949    0.0204    9.9974 H         1 RES1    0.0000
     30 C16        8.0269    0.4943   10.6794 C.ar      1 RES1    0.0000
     31 H11        7.8747    0.2171   11.5748 H         1 RES1    0.0000
@<TRIPOS>BOND
     1    1    2 1
     2    2    3 ar
     3    3    4 1
     4    5    3 ar
     5    6    5 1
     6    7    5 ar
     7    8    7 1
     8    9    8 2
     9   10    8 2
    10   11    7 ar
    11   12   11 1
    12   13    2 ar
    13   14   13 1
    14   15    1 1
    15   16   15 ar
    16   17   16 1
    17   18   16 ar
    18   19   18 ar
    19   20   19 1
    20   21   19 ar
    21   22   21 1
    22   23   21 ar
    23   24   23 1
    24   25   23 ar
    25   26   25 1
    26   27   18 ar
    27   28   27 ar
    28   29   28 1
    29   30   15 ar
    30   31   30 1
    31   11   13 ar
    32   25   27 ar
    33   28   30 ar
@<TRIPOS>SUBSTRUCTURE
     1 RES1 1

@<TRIPOS>CRYSIN
  12.4521    7.8391   25.4000  90.0000  90.0000  90.0000  61 1

