# MOL2 file generated by ConQuest
# Please check atom types

@<TRIPOS>MOLECULE
ZUHQOI
    26    27     1
SMALL
NO_CHARGES
****
Generated from CSD

@<TRIPOS>ATOM
      1 C1        -1.8597    3.7428    2.9182 C.3       1 RES1    0.0000
      2 C2        -1.3340    3.9350    4.3354 C.3       1 RES1    0.0000
      3 H1        -0.3798    4.0356    4.3122 H         1 RES1    0.0000
      4 H2        -1.5618    3.1683    4.8671 H         1 RES1    0.0000
      5 H3        -1.7298    4.7201    4.7202 H         1 RES1    0.0000
      6 N1        -1.0100    2.8274    2.1466 N.am      1 RES1    0.0000
      7 N2        -0.9880    1.4650    2.4543 N.pl3     1 RES1    0.0000
      8 O1        -0.2664    0.7454    1.8099 O.2       1 RES1    0.0000
      9 O2        -1.6793    1.1306    3.3984 O.2       1 RES1    0.0000
     10 C3        -0.5952    3.2874    0.8800 C.2       1 RES1    0.0000
     11 O3         0.0421    2.7148    0.0644 O.2       1 RES1    0.0000
     12 N3        -1.0687    4.6037    0.8581 N.am      1 RES1    0.0000
     13 N4        -1.1126    5.3307   -0.3522 N.pl3     1 RES1    0.0000
     14 O4        -0.3691    4.9991   -1.2264 O.2       1 RES1    0.0000
     15 O5        -1.8995    6.2581   -0.3623 O.2       1 RES1    0.0000
     16 C4        -1.9007    5.0129    1.9939 C.3       1 RES1    0.0000
     17 C5        -1.4420    6.3218    2.5830 C.3       1 RES1    0.0000
     18 H4        -0.4842    6.3255    2.6496 H         1 RES1    0.0000
     19 H5        -1.8229    6.4299    3.4569 H         1 RES1    0.0000
     20 H6        -1.7262    7.0441    2.0191 H         1 RES1    0.0000
     21 C6        -3.4121    4.7848    1.7950 C.3       1 RES1    0.0000
     22 H7        -3.9592    5.5099    2.1347 H         1 RES1    0.0000
     23 H8        -3.6530    4.5714    0.8809 H         1 RES1    0.0000
     24 C7        -3.3800    3.5590    2.7196 C.3       1 RES1    0.0000
     25 H9        -3.6156    2.7305    2.2731 H         1 RES1    0.0000
     26 H10       -3.8951    3.6726    3.5322 H         1 RES1    0.0000
@<TRIPOS>BOND
     1    1    2 1
     2    2    3 1
     3    4    2 1
     4    5    2 1
     5    6    1 1
     6    7    6 1
     7    8    7 2
     8    9    7 2
     9   10    6 1
    10   11   10 2
    11   12   10 1
    12   13   12 1
    13   14   13 2
    14   15   13 2
    15   16    1 1
    16   17   16 1
    17   18   17 1
    18   19   17 1
    19   20   17 1
    20   21   16 1
    21   22   21 1
    22   23   21 1
    23   24    1 1
    24   25   24 1
    25   26   24 1
    26   12   16 1
    27   21   24 1
@<TRIPOS>SUBSTRUCTURE
     1 RES1 1

@<TRIPOS>CRYSIN
   5.9340    9.2370   17.5120  90.0000  90.0000  90.0000  19 1

