# MOL2 file generated by ConQuest
# Please check atom types

@<TRIPOS>MOLECULE
ZUHRID02
    30    31     1
SMALL
NO_CHARGES
****
Generated from CSD

@<TRIPOS>ATOM
      1 C1        -3.4214    2.8033   -1.4859 C.ar      1 RES1    0.0000
      2 C2        -3.2978    3.7230   -0.4185 C.ar      1 RES1    0.0000
      3 C3        -2.3931    3.5274    0.5947 C.ar      1 RES1    0.0000
      4 C4        -1.5805    2.4132    0.5867 C.ar      1 RES1    0.0000
      5 C5        -1.6951    1.4752   -0.4245 C.ar      1 RES1    0.0000
      6 C6        -2.5956    1.6578   -1.4318 C.ar      1 RES1    0.0000
      7 N1        -0.5978    2.2360    1.6160 N.pl3     1 RES1    0.0000
      8 O1         0.0497    1.1801    1.6441 O.2       1 RES1    0.0000
      9 O2        -0.4182    3.1351    2.4371 O.2       1 RES1    0.0000
     10 N2        -4.2958    3.0076   -2.5092 N.3       1 RES1    0.0000
     11 C7        -4.9639    4.2752   -2.7595 C.3       1 RES1    0.0000
     12 C8        -4.4679    4.8837   -4.0571 C.3       1 RES1    0.0000
     13 C9        -4.6661    3.9424   -5.2085 C.3       1 RES1    0.0000
     14 C10       -4.0332    2.6034   -4.9122 C.3       1 RES1    0.0000
     15 C11       -4.5264    2.0490   -3.5865 C.3       1 RES1    0.0000
     16 O3        -4.1160    4.5206   -6.3860 O.3       1 RES1    0.0000
     17 H1        -4.6640    4.3336   -7.0428 H         1 RES1    0.0000
     18 H2        -3.8420    4.4763   -0.4025 H         1 RES1    0.0000
     19 H3        -2.3287    4.1456    1.2876 H         1 RES1    0.0000
     20 H4        -1.1560    0.7176   -0.4165 H         1 RES1    0.0000
     21 H5        -2.6670    1.0137   -2.1006 H         1 RES1    0.0000
     22 H6        -4.7891    4.8848   -2.0245 H         1 RES1    0.0000
     23 H7        -5.9219    4.1326   -2.8115 H         1 RES1    0.0000
     24 H8        -4.9478    5.7083   -4.2293 H         1 RES1    0.0000
     25 H9        -3.5256    5.0966   -3.9730 H         1 RES1    0.0000
     26 H10       -5.6281    3.8105   -5.3447 H         1 RES1    0.0000
     27 H11       -3.0202    2.7028   -4.8821 H         1 RES1    0.0000
     28 H12       -4.2491    1.9798   -5.6231 H         1 RES1    0.0000
     29 H13       -5.4745    1.8545   -3.6486 H         1 RES1    0.0000
     30 H14       -4.0615    1.2212   -3.3883 H         1 RES1    0.0000
@<TRIPOS>BOND
     1    1    2 ar
     2    2    3 ar
     3    3    4 ar
     4    4    5 ar
     5    5    6 ar
     6    6    1 ar
     7    7    4 1
     8    8    7 2
     9    9    7 2
    10   10    1 1
    11   11   10 1
    12   12   11 1
    13   13   12 1
    14   14   13 1
    15   15   10 1
    16   16   13 1
    17   17   16 1
    18   18    2 1
    19   19    3 1
    20   20    5 1
    21   21    6 1
    22   22   11 1
    23   23   11 1
    24   24   12 1
    25   25   12 1
    26   26   13 1
    27   27   14 1
    28   28   14 1
    29   29   15 1
    30   30   15 1
    31   14   15 1
@<TRIPOS>SUBSTRUCTURE
     1 RES1 1

@<TRIPOS>CRYSIN
   4.8693   10.8070   20.1430  90.0000  96.2010  90.0000  14 1

