# MOL2 file generated by ConQuest
# Please check atom types

@<TRIPOS>MOLECULE
ZUHVIH
    54    58     1
SMALL
NO_CHARGES
****
Generated from CSD

@<TRIPOS>ATOM
      1 O1        -0.6438    1.8053    6.7446 O.3       1 RES1    0.0000
      2 C1         0.5079    1.0165    6.4525 C.3       1 RES1    0.0000
      3 C2         1.7666    1.5531    7.1216 C.3       1 RES1    0.0000
      4 C3         1.5947    1.6786    8.6386 C.3       1 RES1    0.0000
      5 C4         0.2525    2.2941    8.9620 C.ar      1 RES1    0.0000
      6 C5        -0.7738    2.3019    8.0306 C.ar      1 RES1    0.0000
      7 C6        -2.0002    2.8761    8.3227 C.ar      1 RES1    0.0000
      8 C7        -2.2133    3.4412    9.5566 C.ar      1 RES1    0.0000
      9 C8        -1.2075    3.4528   10.4984 C.ar      1 RES1    0.0000
     10 C9         0.0111    2.8942   10.1944 C.ar      1 RES1    0.0000
     11 C10        0.6525    0.9052    4.9579 C.ar      1 RES1    0.0000
     12 C11        1.2756   -0.2069    4.4378 C.ar      1 RES1    0.0000
     13 C12        1.5213   -0.3466    3.0772 C.ar      1 RES1    0.0000
     14 C13        1.0974    0.6660    2.2755 C.ar      1 RES1    0.0000
     15 C14        0.4730    1.7820    2.7822 C.ar      1 RES1    0.0000
     16 C15        0.2381    1.9476    4.1189 C.ar      1 RES1    0.0000
     17 O2         1.2193    0.7772    0.9120 O.3       1 RES1    0.0000
     18 C16        0.5348    1.9618    0.5588 C.3       1 RES1    0.0000
     19 O3         0.1606    2.6459    1.7554 O.3       1 RES1    0.0000
     20 N1         2.1227    2.8787    6.5106 N.pl3     1 RES1    0.0000
     21 O4         1.5559    3.8796    6.9070 O.2       1 RES1    0.0000
     22 O5         2.9445    2.8787    5.6165 O.2       1 RES1    0.0000
     23 C17        1.6985    0.2858    9.3077 C.3       1 RES1    0.0000
     24 C18        1.7347    0.3026   10.8113 C.2       1 RES1    0.0000
     25 C19        0.6956   -0.2263   11.4700 C.2       1 RES1    0.0000
     26 C20        0.5640   -0.2147   12.9468 C.3       1 RES1    0.0000
     27 C21        1.8467    0.1345   13.6621 C.3       1 RES1    0.0000
     28 C22        2.5513    1.2686   12.9587 C.3       1 RES1    0.0000
     29 C23        2.8829    0.9208   11.5251 C.3       1 RES1    0.0000
     30 N2         2.9393   -0.4164    8.8085 N.pl3     1 RES1    0.0000
     31 O6         4.0025    0.1785    8.8920 O.2       1 RES1    0.0000
     32 O7         2.8150   -1.5389    8.3525 O.2       1 RES1    0.0000
     33 H1         0.3464    0.1151    6.8012 H         1 RES1    0.0000
     34 H2         2.4990    0.9259    6.9473 H         1 RES1    0.0000
     35 H3         2.3033    2.2553    8.9933 H         1 RES1    0.0000
     36 H4        -2.6776    2.8800    7.6864 H         1 RES1    0.0000
     37 H5        -3.0399    3.8175    9.7578 H         1 RES1    0.0000
     38 H6        -1.3522    3.8356   11.3344 H         1 RES1    0.0000
     39 H7         0.6911    2.9188   10.8277 H         1 RES1    0.0000
     40 H8         1.5407   -0.8871    5.0145 H         1 RES1    0.0000
     41 H9         1.9545   -1.0940    2.7330 H         1 RES1    0.0000
     42 H10       -0.1738    2.7118    4.4527 H         1 RES1    0.0000
     43 H11       -0.2560    1.7445    0.0402 H         1 RES1    0.0000
     44 H12        1.1090    2.5269    0.0194 H         1 RES1    0.0000
     45 H13        0.9202   -0.2418    9.0306 H         1 RES1    0.0000
     46 H14        0.0176   -0.6233   10.9723 H         1 RES1    0.0000
     47 H15        0.2681   -1.0889   13.2418 H         1 RES1    0.0000
     48 H16       -0.1188    0.4280   13.1956 H         1 RES1    0.0000
     49 H17        1.6491    0.3918   14.5756 H         1 RES1    0.0000
     50 H18        2.4271   -0.6427   13.6859 H         1 RES1    0.0000
     51 H19        3.3700    1.4807   13.4356 H         1 RES1    0.0000
     52 H20        1.9842    2.0549   12.9751 H         1 RES1    0.0000
     53 H21        3.1518    1.7264   11.0557 H         1 RES1    0.0000
     54 H22        3.6337    0.3052   11.5117 H         1 RES1    0.0000
@<TRIPOS>BOND
     1    1    2 1
     2    2    3 1
     3    3    4 1
     4    4    5 1
     5    5    6 ar
     6    6    1 1
     7    7    6 ar
     8    8    7 ar
     9    9    8 ar
    10   10    5 ar
    11   11    2 1
    12   12   11 ar
    13   13   12 ar
    14   14   13 ar
    15   15   14 ar
    16   16   11 ar
    17   17   14 1
    18   18   17 1
    19   19   15 1
    20   20    3 1
    21   21   20 2
    22   22   20 2
    23   23    4 1
    24   24   23 1
    25   25   24 2
    26   26   25 1
    27   27   26 1
    28   28   27 1
    29   29   24 1
    30   30   23 1
    31   31   30 2
    32   32   30 2
    33   33    2 1
    34   34    3 1
    35   35    4 1
    36   36    7 1
    37   37    8 1
    38   38    9 1
    39   39   10 1
    40   40   12 1
    41   41   13 1
    42   42   16 1
    43   43   18 1
    44   44   18 1
    45   45   23 1
    46   46   25 1
    47   47   26 1
    48   48   26 1
    49   49   27 1
    50   50   27 1
    51   51   28 1
    52   52   28 1
    53   53   29 1
    54   54   29 1
    55    9   10 ar
    56   15   16 ar
    57   18   19 1
    58   28   29 1
@<TRIPOS>SUBSTRUCTURE
     1 RES1 1

@<TRIPOS>CRYSIN
  10.5180   12.9320   15.0480  90.0000  97.9900  90.0000 231 1

