# MOL2 file generated by ConQuest
# Please check atom types

@<TRIPOS>MOLECULE
ZUHXAB
    49    50     1
SMALL
NO_CHARGES
****
Generated from CSD

@<TRIPOS>ATOM
      1 O1         5.0763   -8.3669   15.4777 O.2       1 RES1    0.0000
      2 O2         6.6224   -9.3863   16.5200 O.2       1 RES1    0.0000
      3 O3         8.0422   -8.2172   20.8574 O.2       1 RES1    0.0000
      4 O4         7.2624   -6.4281   21.7734 O.2       1 RES1    0.0000
      5 O5        -2.9886   -0.4570    8.7992 O.2       1 RES1    0.0000
      6 O6        -1.6754    1.2050    8.4344 O.2       1 RES1    0.0000
      7 O7         1.7090    2.3547   11.5271 O.2       1 RES1    0.0000
      8 O8         2.0787    1.2400   13.2970 O.2       1 RES1    0.0000
      9 N1         5.7785   -8.5242   16.4538 N.pl3     1 RES1    0.0000
     10 N2         7.2757   -7.2689   20.8755 N.pl3     1 RES1    0.0000
     11 N3         3.8176   -6.3580   16.5741 N.3       1 RES1    0.0000
     12 N4         2.8627   -5.3656   16.7144 N.2       1 RES1    0.0000
     13 N5         0.7010   -2.3069   14.2270 N.2       1 RES1    0.0000
     14 N6         0.9242   -1.0827   13.6537 N.3       1 RES1    0.0000
     15 N7        -2.0392    0.2585    9.0958 N.pl3     1 RES1    0.0000
     16 N8         1.4529    1.4206   12.2507 N.pl3     1 RES1    0.0000
     17 C1         5.5985   -7.6619   17.6144 C.ar      1 RES1    0.0000
     18 C2         6.4494   -7.8667   18.6807 C.ar      1 RES1    0.0000
     19 C3         6.3381   -7.0675   19.7791 C.ar      1 RES1    0.0000
     20 C4         5.3997   -6.0554   19.8472 C.ar      1 RES1    0.0000
     21 C5         4.5742   -5.8342   18.7929 C.ar      1 RES1    0.0000
     22 C6         4.6244   -6.6239   17.6144 C.ar      1 RES1    0.0000
     23 C7         2.2751   -4.9892   15.6381 C.2       1 RES1    0.0000
     24 C8         2.5502   -5.4709   14.2611 C.3       1 RES1    0.0000
     25 C9         1.1881   -3.9609   15.8245 C.3       1 RES1    0.0000
     26 C10        1.4872   -2.6464   15.1931 C.2       1 RES1    0.0000
     27 C11        2.6362   -1.8605   15.7202 C.3       1 RES1    0.0000
     28 C12        0.1808   -0.7167   12.5794 C.ar      1 RES1    0.0000
     29 C13       -0.8626   -1.5365   12.1164 C.ar      1 RES1    0.0000
     30 C14       -1.5831   -1.2033   11.0140 C.ar      1 RES1    0.0000
     31 C15       -1.2938   -0.0462   10.3145 C.ar      1 RES1    0.0000
     32 C16       -0.3047    0.7948   10.7254 C.ar      1 RES1    0.0000
     33 C17        0.4180    0.4861   11.8618 C.ar      1 RES1    0.0000
     34 H1         3.9273   -6.8421   15.8545 H         1 RES1    0.0000
     35 H2         1.6226   -0.5969   13.9303 H         1 RES1    0.0000
     36 H3         7.0233   -8.5059   18.5604 H         1 RES1    0.0000
     37 H4         5.3908   -5.5480   20.6249 H         1 RES1    0.0000
     38 H5         3.8721   -5.1547   18.8611 H         1 RES1    0.0000
     39 H6         1.9196   -4.9722   13.5295 H         1 RES1    0.0000
     40 H7         2.4227   -6.5260   14.1709 H         1 RES1    0.0000
     41 H8         3.6043   -5.2318   13.9905 H         1 RES1    0.0000
     42 H9         0.4359   -4.3134   15.4937 H         1 RES1    0.0000
     43 H10        1.0282   -3.8308   16.7565 H         1 RES1    0.0000
     44 H11        3.1216   -2.4039   16.5160 H         1 RES1    0.0000
     45 H12        2.3035   -0.9080   16.0950 H         1 RES1    0.0000
     46 H13        3.3735   -1.6913   14.9325 H         1 RES1    0.0000
     47 H14       -1.1789   -2.3172   12.5874 H         1 RES1    0.0000
     48 H15       -2.3004   -1.7813   10.7634 H         1 RES1    0.0000
     49 H16       -0.1563    1.5816   10.3225 H         1 RES1    0.0000
@<TRIPOS>BOND
     1    1    9 2
     2    2    9 2
     3    3   10 2
     4    4   10 2
     5    5   15 2
     6    6   15 2
     7    7   16 2
     8    8   16 2
     9    9   17 1
    10   10   19 1
    11   11   12 1
    12   12   23 2
    13   13   14 1
    14   14   28 1
    15   15   31 1
    16   16   33 1
    17   17   18 ar
    18   18   19 ar
    19   19   20 ar
    20   20   21 ar
    21   21   22 ar
    22   22   11 1
    23   23   24 1
    24   24   39 1
    25   25   23 1
    26   26   13 2
    27   27   26 1
    28   28   29 ar
    29   29   30 ar
    30   30   31 ar
    31   31   32 ar
    32   32   33 ar
    33   33   28 ar
    34   34   11 1
    35   35   14 1
    36   36   18 1
    37   37   20 1
    38   38   21 1
    39   40   24 1
    40   41   24 1
    41   42   25 1
    42   43   25 1
    43   44   27 1
    44   45   27 1
    45   46   27 1
    46   47   29 1
    47   48   30 1
    48   49   32 1
    49   17   22 ar
    50   25   26 1
@<TRIPOS>SUBSTRUCTURE
     1 RES1 1

@<TRIPOS>CRYSIN
   4.9870    9.9980   20.5670 101.8100  94.2100  94.9500   2 1

