# MOL2 file generated by ConQuest
# Please check atom types

@<TRIPOS>MOLECULE
ZUKMAT
    79    80     1
SMALL
NO_CHARGES
****
Generated from CSD

@<TRIPOS>ATOM
      1 O1        -3.2555    8.3808    8.0672 O.3       1 RES1    0.0000
      2 O2        -1.6728    8.3179    5.2489 O.3       1 RES1    0.0000
      3 O3        -1.2131   10.8949    6.4649 O.3       1 RES1    0.0000
      4 O4        -3.0914   10.9368    9.3392 O.3       1 RES1    0.0000
      5 C1        -2.4102   10.1120    6.6692 C.3       1 RES1    0.0000
      6 C2        -1.9250   10.0879    9.1628 C.3       1 RES1    0.0000
      7 C3        -2.1244    9.2602    7.9104 C.3       1 RES1    0.0000
      8 C4        -2.7341    9.2938    5.4364 C.3       1 RES1    0.0000
      9 C5        -2.8663   12.2877    9.4973 C.2       1 RES1    0.0000
     10 C6        -1.7417    9.2606   10.4278 C.3       1 RES1    0.0000
     11 O5        -1.9085    6.5755    8.0896 O.2       1 RES1    0.0000
     12 C7        -2.8091   10.1310    4.1784 C.3       1 RES1    0.0000
     13 C8        -1.7469   10.1264   11.7096 C.3       1 RES1    0.0000
     14 C9        -3.0074    7.0325    8.1203 C.2       1 RES1    0.0000
     15 O6        -3.3499    9.3678    3.1121 O.3       1 RES1    0.0000
     16 O7        -2.4282   12.7587    6.1739 O.2       1 RES1    0.0000
     17 O8        -3.1614    6.6852    4.9061 O.2       1 RES1    0.0000
     18 O9        -1.0669    8.1045   12.6976 O.3       1 RES1    0.0000
     19 O10       -1.7903   12.7598    9.5015 O.2       1 RES1    0.0000
     20 C10       -1.3678   12.2202    6.1837 C.2       1 RES1    0.0000
     21 O11       -1.2356    9.9732   13.9472 O.3       1 RES1    0.0000
     22 C11       -0.4377    8.4669   10.3971 C.3       1 RES1    0.0000
     23 N1        -0.7741    9.5575   12.6780 N.3       1 RES1    0.0000
     24 C12       -0.4378    7.5306   11.5851 C.3       1 RES1    0.0000
     25 C13       -4.2510    6.2640    8.2197 C.3       1 RES1    0.0000
     26 C14       -2.0448    7.0497    4.9620 C.2       1 RES1    0.0000
     27 C15       -4.1675   12.9929    9.6666 C.3       1 RES1    0.0000
     28 C16       -4.6484    9.5331    2.8574 C.2       1 RES1    0.0000
     29 O12       -5.3044   10.3785    3.3528 O.2       1 RES1    0.0000
     30 C17       -3.0279   10.1899   12.4765 C.3       1 RES1    0.0000
     31 O13        0.9024    7.1328   11.8314 O.3       1 RES1    0.0000
     32 C18       -0.8271    6.1964    4.7451 C.3       1 RES1    0.0000
     33 C19       -5.1554    8.5430    1.8499 C.3       1 RES1    0.0000
     34 O14       -2.6259   11.7956   14.1725 O.3       1 RES1    0.0000
     35 C20       -0.0548   12.8342    5.9080 C.3       1 RES1    0.0000
     36 C21       -2.5772   10.4435   13.8828 C.3       1 RES1    0.0000
     37 C22        2.1285    5.2875   12.6514 C.3       1 RES1    0.0000
     38 C23        1.0205    6.0766   12.7843 C.3       1 RES1    0.0000
     39 C24       -2.5623   12.1071   15.5452 C.3       1 RES1    0.0000
     40 C25       -3.5372   12.6785   16.0462 C.3       1 RES1    0.0000
     41 H1        -3.1441   10.7026    6.8553 H         1 RES1    0.0000
     42 H2        -1.1528   10.6451    9.0439 H         1 RES1    0.0000
     43 H3        -1.3377    8.7326    7.7551 H         1 RES1    0.0000
     44 H4        -3.5687    8.8369    5.5666 H         1 RES1    0.0000
     45 H5        -2.4698    8.6377   10.4866 H         1 RES1    0.0000
     46 H6        -1.9307   10.4379    3.9419 H         1 RES1    0.0000
     47 H7        -3.3619   10.8994    4.3365 H         1 RES1    0.0000
     48 H8        -1.4745   11.0187   11.4829 H         1 RES1    0.0000
     49 H9         0.3138    9.0628   10.4446 H         1 RES1    0.0000
     50 H10       -0.3759    7.9655    9.5812 H         1 RES1    0.0000
     51 H11       -0.9353    6.7469   11.3402 H         1 RES1    0.0000
     52 H12       -4.0458    5.3269    8.2547 H         1 RES1    0.0000
     53 H13       -4.7218    6.5186    9.0173 H         1 RES1    0.0000
     54 H14       -4.8000    6.4425    7.4529 H         1 RES1    0.0000
     55 H15       -4.0102   13.9324    9.7785 H         1 RES1    0.0000
     56 H16       -4.7120   12.8491    8.8900 H         1 RES1    0.0000
     57 H17       -4.6186   12.6500   10.4418 H         1 RES1    0.0000
     58 H18       -3.5108    9.3633   12.4121 H         1 RES1    0.0000
     59 H19       -3.5855   10.9048   12.1588 H         1 RES1    0.0000
     60 H20       -1.0983    5.2974    4.5436 H         1 RES1    0.0000
     61 H21       -0.3154    6.5483    4.0133 H         1 RES1    0.0000
     62 H22       -0.2905    6.1976    5.5414 H         1 RES1    0.0000
     63 H23       -6.0905    8.6935    1.6946 H         1 RES1    0.0000
     64 H24       -4.6723    8.6497    1.0271 H         1 RES1    0.0000
     65 H25       -5.0255    7.6514    2.1844 H         1 RES1    0.0000
     66 H26       -0.1730   13.7664    5.7121 H         1 RES1    0.0000
     67 H27        0.5112   12.7387    6.6776 H         1 RES1    0.0000
     68 H28        0.3511   12.3981    5.1565 H         1 RES1    0.0000
     69 H29       -3.1286    9.9541   14.4985 H         1 RES1    0.0000
     70 H30        2.1214    4.6133   13.3343 H         1 RES1    0.0000
     71 H31        2.1184    4.8693   11.7880 H         1 RES1    0.0000
     72 H32        2.9205    5.8230   12.7381 H         1 RES1    0.0000
     73 H33        0.2388    5.5221   12.7241 H         1 RES1    0.0000
     74 H34        1.0312    6.4636   13.6631 H         1 RES1    0.0000
     75 H35       -1.7943   12.6660   15.6851 H         1 RES1    0.0000
     76 H36       -2.4109   11.2905   16.0280 H         1 RES1    0.0000
     77 H37       -3.3714   12.8363   16.9781 H         1 RES1    0.0000
     78 H38       -3.6875   13.5162   15.6012 H         1 RES1    0.0000
     79 H39       -4.3126   12.1211   15.9482 H         1 RES1    0.0000
@<TRIPOS>BOND
     1    1    7 1
     2    2    8 1
     3    3    5 1
     4    4    6 1
     5    5    7 1
     6    6    7 1
     7    7   43 1
     8    8    5 1
     9    9    4 1
    10   10    6 1
    11   11   14 2
    12   12    8 1
    13   13   10 1
    14   14    1 1
    15   15   12 1
    16   16   20 2
    17   17   26 2
    18   18   23 1
    19   19    9 2
    20   20    3 1
    21   21   23 1
    22   22   10 1
    23   23   13 1
    24   24   18 1
    25   25   14 1
    26   26    2 1
    27   27    9 1
    28   28   15 1
    29   29   28 2
    30   30   13 1
    31   31   24 1
    32   32   26 1
    33   33   28 1
    34   34   36 1
    35   35   20 1
    36   36   21 1
    37   37   38 1
    38   38   31 1
    39   39   34 1
    40   40   39 1
    41   41    5 1
    42   42    6 1
    43   44    8 1
    44   45   10 1
    45   46   12 1
    46   47   12 1
    47   48   13 1
    48   49   22 1
    49   50   22 1
    50   51   24 1
    51   52   25 1
    52   53   25 1
    53   54   25 1
    54   55   27 1
    55   56   27 1
    56   57   27 1
    57   58   30 1
    58   59   30 1
    59   60   32 1
    60   61   32 1
    61   62   32 1
    62   63   33 1
    63   64   33 1
    64   65   33 1
    65   66   35 1
    66   67   35 1
    67   68   35 1
    68   69   36 1
    69   70   37 1
    70   71   37 1
    71   72   37 1
    72   73   38 1
    73   74   38 1
    74   75   39 1
    75   76   39 1
    76   77   40 1
    77   78   40 1
    78   79   40 1
    79   22   24 1
    80   30   36 1
@<TRIPOS>SUBSTRUCTURE
     1 RES1 1

@<TRIPOS>CRYSIN
   5.7690    9.9560   14.2800  92.6700  99.9800 106.1100   1 1

