# MOL2 file generated by ConQuest
# Please check atom types

@<TRIPOS>MOLECULE
ZUKYAF
    58    60     1
SMALL
NO_CHARGES
****
Generated from CSD

@<TRIPOS>ATOM
      1 O1        -0.3410   -1.9821    3.6826 O.3       1 RES1    0.0000
      2 O2         1.2459   -2.9562    2.4182 O.2       1 RES1    0.0000
      3 O3         2.6971   -0.0843   -0.7015 O.2       1 RES1    0.0000
      4 O4         1.6611    1.5660    2.5008 O.3       1 RES1    0.0000
      5 O5         3.9755    3.7939    3.8868 O.2       1 RES1    0.0000
      6 O6         3.2541    3.3768    1.7860 O.3       1 RES1    0.0000
      7 N1         1.5433   -0.3310    1.2449 N.am      1 RES1    0.0000
      8 N2         2.3308    2.2880    3.5063 N.am      1 RES1    0.0000
      9 C1        -0.4229   -3.0450    4.6929 C.3       1 RES1    0.0000
     10 C2         0.9000   -3.1616    5.4053 C.3       1 RES1    0.0000
     11 C3        -0.8402   -4.3464    4.0449 C.3       1 RES1    0.0000
     12 C4        -1.4924   -2.5266    5.6217 C.3       1 RES1    0.0000
     13 C5         0.4854   -2.0674    2.6479 C.2       1 RES1    0.0000
     14 C6         0.2807   -0.8547    1.7458 C.3       1 RES1    0.0000
     15 C7        -0.4436   -1.2718    0.4462 C.3       1 RES1    0.0000
     16 C8         0.5689   -1.3014   -0.6006 C.3       1 RES1    0.0000
     17 C9         1.7408   -0.5032   -0.0863 C.2       1 RES1    0.0000
     18 C10        2.4353    0.4242    2.0729 C.3       1 RES1    0.0000
     19 C11        2.9332   -0.3435    3.2692 C.2       1 RES1    0.0000
     20 C12        2.9087    0.1695    4.4838 C.2       1 RES1    0.0000
     21 C13        2.4544    1.5579    4.7634 C.3       1 RES1    0.0000
     22 C14        1.1571    1.5624    5.5415 C.3       1 RES1    0.0000
     23 C15        3.2676    3.1948    3.1075 C.2       1 RES1    0.0000
     24 C16        4.1322    4.3957    1.2741 C.3       1 RES1    0.0000
     25 C17        3.9749    4.3948   -0.2225 C.ar      1 RES1    0.0000
     26 C18        3.8199    5.5796   -0.9057 C.ar      1 RES1    0.0000
     27 C19        3.6827    5.5599   -2.2978 C.ar      1 RES1    0.0000
     28 C20        3.6816    4.3778   -2.9762 C.ar      1 RES1    0.0000
     29 C21        3.8326    3.2001   -2.3063 C.ar      1 RES1    0.0000
     30 C22        3.9887    3.2073   -0.9349 C.ar      1 RES1    0.0000
     31 H1         0.8442   -3.8863    6.0910 H         1 RES1    0.0000
     32 H2         1.1157   -2.2943    5.8491 H         1 RES1    0.0000
     33 H3         1.6145   -3.3858    4.7415 H         1 RES1    0.0000
     34 H4        -0.8934   -5.0612    4.7391 H         1 RES1    0.0000
     35 H5        -1.7366   -4.2289    3.6157 H         1 RES1    0.0000
     36 H6        -0.1691   -4.6011    3.3494 H         1 RES1    0.0000
     37 H7        -1.6353   -3.1804    6.3646 H         1 RES1    0.0000
     38 H8        -1.2034   -1.6476    6.0035 H         1 RES1    0.0000
     39 H9        -2.3442   -2.4055    5.1135 H         1 RES1    0.0000
     40 H10       -0.1813   -0.1704    2.3051 H         1 RES1    0.0000
     41 H11       -0.8495   -2.1822    0.5544 H         1 RES1    0.0000
     42 H12       -1.1553   -0.6135    0.2188 H         1 RES1    0.0000
     43 H13        0.8489   -2.2440   -0.7854 H         1 RES1    0.0000
     44 H14        0.2106   -0.8897   -1.4370 H         1 RES1    0.0000
     45 H15        3.2342    0.6861    1.5319 H         1 RES1    0.0000
     46 H16        3.2905   -1.2691    3.1391 H         1 RES1    0.0000
     47 H17        3.2127   -0.3982    5.2485 H         1 RES1    0.0000
     48 H18        3.1462    2.0252    5.3117 H         1 RES1    0.0000
     49 H19        1.2792    1.0503    6.3925 H         1 RES1    0.0000
     50 H20        0.8974    2.5024    5.7494 H         1 RES1    0.0000
     51 H21        0.4405    1.1283    4.9932 H         1 RES1    0.0000
     52 H22        3.8769    5.2890    1.6462 H         1 RES1    0.0000
     53 H23        5.0789    4.1912    1.5197 H         1 RES1    0.0000
     54 H24        3.8071    6.4469   -0.4097 H         1 RES1    0.0000
     55 H25        3.5803    6.4236   -2.7938 H         1 RES1    0.0000
     56 H26        3.5696    4.3814   -3.9658 H         1 RES1    0.0000
     57 H27        3.8309    2.3382   -2.8084 H         1 RES1    0.0000
     58 H28        4.1162    2.3445   -0.4498 H         1 RES1    0.0000
@<TRIPOS>BOND
     1    1    9 1
     2    2   13 2
     3    3   17 2
     4    4    8 1
     5    5   23 2
     6    6   23 1
     7    7   14 1
     8    8   21 1
     9    9   10 1
    10   10   31 1
    11   11    9 1
    12   12    9 1
    13   13    1 1
    14   14   13 1
    15   15   14 1
    16   16   15 1
    17   17    7 1
    18   18    4 1
    19   19   18 1
    20   20   19 2
    21   21   20 1
    22   22   21 1
    23   23    8 1
    24   24    6 1
    25   25   24 1
    26   26   25 ar
    27   27   26 ar
    28   28   27 ar
    29   29   28 ar
    30   30   25 ar
    31   32   10 1
    32   33   10 1
    33   34   11 1
    34   35   11 1
    35   36   11 1
    36   37   12 1
    37   38   12 1
    38   39   12 1
    39   40   14 1
    40   41   15 1
    41   42   15 1
    42   43   16 1
    43   44   16 1
    44   45   18 1
    45   46   19 1
    46   47   20 1
    47   48   21 1
    48   49   22 1
    49   50   22 1
    50   51   22 1
    51   52   24 1
    52   53   24 1
    53   54   26 1
    54   55   27 1
    55   56   28 1
    56   57   29 1
    57   58   30 1
    58    7   18 1
    59   16   17 1
    60   29   30 ar
@<TRIPOS>SUBSTRUCTURE
     1 RES1 1

@<TRIPOS>CRYSIN
  10.2900    8.9690   12.7590  90.0000 107.6600  90.0000   4 1

