# MOL2 file generated by ConQuest
# Please check atom types

@<TRIPOS>MOLECULE
ZUMHUM
    56    56     1
SMALL
NO_CHARGES
****
Generated from CSD

@<TRIPOS>ATOM
      1 N1         5.9236    6.6439    6.2814 N.am      1 RES1    0.0000
      2 N2         6.5672    6.0258    3.1708 N.am      1 RES1    0.0000
      3 N3         9.1360    4.5281    2.3684 N.am      1 RES1    0.0000
      4 O1         7.0446    8.5707    6.5715 O.2       1 RES1    0.0000
      5 O2         5.7025    7.0502    3.5951 O.3       1 RES1    0.0000
      6 O3         5.4447    4.5065    4.4064 O.2       1 RES1    0.0000
      7 O4         7.9018    4.1597    1.8073 O.3       1 RES1    0.0000
      8 O5         8.8461    6.6310    1.6415 O.2       1 RES1    0.0000
      9 C1         6.8646    4.3684    9.1663 C.3       1 RES1    0.0000
     10 H1         7.3338    3.5320    9.1951 H         1 RES1    0.0000
     11 H2         5.9635    4.2417    9.4735 H         1 RES1    0.0000
     12 H3         7.3089    5.0033    9.7315 H         1 RES1    0.0000
     13 C2         6.8433    4.8778    7.7702 C.3       1 RES1    0.0000
     14 H4         6.3875    4.2036    7.2258 H         1 RES1    0.0000
     15 C3         6.0416    6.1629    7.6488 C.3       1 RES1    0.0000
     16 H5         5.1520    6.0133    8.0072 H         1 RES1    0.0000
     17 H6         6.4655    6.8498    8.1873 H         1 RES1    0.0000
     18 C4         6.4770    7.7599    5.8404 C.2       1 RES1    0.0000
     19 C5         6.3538    8.0290    4.3787 C.3       1 RES1    0.0000
     20 C6         7.3826    8.8763    3.7046 C.3       1 RES1    0.0000
     21 H7         8.1089    9.2234    4.2468 H         1 RES1    0.0000
     22 H8         7.6256    8.6519    2.7916 H         1 RES1    0.0000
     23 C7         6.0274    9.4135    3.9440 C.3       1 RES1    0.0000
     24 H9         5.4420    9.5187    3.1776 H         1 RES1    0.0000
     25 H10        5.9245   10.0890    4.6310 H         1 RES1    0.0000
     26 C8         6.2633    4.7796    3.5366 C.2       1 RES1    0.0000
     27 C9         6.9941    3.6775    2.8146 C.3       1 RES1    0.0000
     28 H11        7.4987    3.1505    3.4691 H         1 RES1    0.0000
     29 C10        5.9928    2.7689    2.1199 C.3       1 RES1    0.0000
     30 H12        5.3471    2.4788    2.7971 H         1 RES1    0.0000
     31 C11        5.2132    3.4977    1.0383 C.3       1 RES1    0.0000
     32 H13        5.8136    3.7702    0.3397 H         1 RES1    0.0000
     33 H14        4.7901    4.2721    1.4162 H         1 RES1    0.0000
     34 H15        4.5445    2.9123    0.6756 H         1 RES1    0.0000
     35 C12        6.6677    1.5239    1.5814 C.3       1 RES1    0.0000
     36 H16        6.0043    0.9302    1.2232 H         1 RES1    0.0000
     37 H17        7.1413    1.0835    2.2923 H         1 RES1    0.0000
     38 H18        7.2859    1.7692    0.8891 H         1 RES1    0.0000
     39 C13        9.5608    5.7774    2.1280 C.2       1 RES1    0.0000
     40 C14       10.9683    6.0617    2.6021 C.3       1 RES1    0.0000
     41 H19       11.4481    5.2111    2.6765 H         1 RES1    0.0000
     42 C15       11.6893    6.9283    1.6085 C.3       1 RES1    0.0000
     43 H20       11.7461    6.4708    0.7666 H         1 RES1    0.0000
     44 H21       12.5736    7.1172    1.9303 H         1 RES1    0.0000
     45 H22       11.2078    7.7521    1.4942 H         1 RES1    0.0000
     46 C16       10.9035    6.6901    3.9570 C.3       1 RES1    0.0000
     47 H23       10.5816    7.5911    3.8774 H         1 RES1    0.0000
     48 H24       11.7798    6.6964    4.3488 H         1 RES1    0.0000
     49 H25       10.3067    6.1857    4.5159 H         1 RES1    0.0000
     50 C17        8.1932    5.0096    7.2462 C.3       1 RES1    0.0000
     51 H26        8.7049    5.5837    7.8216 H         1 RES1    0.0000
     52 H27        8.1595    5.3873    6.3646 H         1 RES1    0.0000
     53 H28        8.6074    4.1441    7.2091 H         1 RES1    0.0000
     54 H29        9.6761    3.8716    2.5187 H         1 RES1    0.0000
     55 H30        5.5343    6.1173    5.6500 H         1 RES1    0.0000
     56 H31        7.0863    6.2465    2.4835 H         1 RES1    0.0000
@<TRIPOS>BOND
     1    1   15 1
     2    2    5 1
     3    3    7 1
     4    4   18 2
     5    5   19 1
     6    6   26 2
     7    7   27 1
     8    8   39 2
     9    9   10 1
    10   11    9 1
    11   12    9 1
    12   13    9 1
    13   14   13 1
    14   15   13 1
    15   16   15 1
    16   17   15 1
    17   18    1 1
    18   19   18 1
    19   20   19 1
    20   21   20 1
    21   22   20 1
    22   23   19 1
    23   24   23 1
    24   25   23 1
    25   26    2 1
    26   27   26 1
    27   28   27 1
    28   29   27 1
    29   30   29 1
    30   31   29 1
    31   32   31 1
    32   33   31 1
    33   34   31 1
    34   35   29 1
    35   36   35 1
    36   37   35 1
    37   38   35 1
    38   39    3 1
    39   40   39 1
    40   41   40 1
    41   42   40 1
    42   43   42 1
    43   44   42 1
    44   45   42 1
    45   46   40 1
    46   47   46 1
    47   48   46 1
    48   49   46 1
    49   50   13 1
    50   51   50 1
    51   52   50 1
    52   53   50 1
    53   54    3 1
    54   55    1 1
    55   56    2 1
    56   20   23 1
@<TRIPOS>SUBSTRUCTURE
     1 RES1 1

@<TRIPOS>CRYSIN
   8.8690   12.6730   18.5610  90.0000  90.0000  90.0000  19 1

