# MOL2 file generated by ConQuest
# Please check atom types

@<TRIPOS>MOLECULE
ZUMLIE
    49    51     1
SMALL
NO_CHARGES
****
Generated from CSD

@<TRIPOS>ATOM
      1 O1         2.5456   -1.3999    1.8866 O.2       1 RES1    0.0000
      2 O2         1.1770   -5.7081    1.8674 O.2       1 RES1    0.0000
      3 O3         4.8208   -4.3380   -0.6809 O.2       1 RES1    0.0000
      4 O4         2.2381   -7.7505   -1.5341 O.2       1 RES1    0.0000
      5 O5         3.1494   -0.4486   -2.8414 O.2       1 RES1    0.0000
      6 O6         1.4140    0.7777   -2.7078 O.2       1 RES1    0.0000
      7 N1         1.8510   -3.5537    1.9245 N.am      1 RES1    0.0000
      8 N2         3.7642   -2.8882    0.6829 N.am      1 RES1    0.0000
      9 N3         1.9839   -0.2794   -2.5374 N.pl3     1 RES1    0.0000
     10 C1         3.8774   -4.0937    0.0436 C.2       1 RES1    0.0000
     11 C2         2.6976   -2.5383    1.5120 C.2       1 RES1    0.0000
     12 C3         1.8835   -4.8355    1.4172 C.2       1 RES1    0.0000
     13 C4         2.7463   -5.0573    0.2114 C.3       1 RES1    0.0000
     14 H1         3.1305   -5.9557    0.2822 H         1 RES1    0.0000
     15 C5         1.8118   -5.0369   -1.0591 C.3       1 RES1    0.0000
     16 H2         1.0833   -5.6686   -0.8868 H         1 RES1    0.0000
     17 C6         2.5402   -5.5311   -2.3120 C.3       1 RES1    0.0000
     18 H3         1.9985   -5.3291   -3.0912 H         1 RES1    0.0000
     19 H4         3.3754   -5.0469   -2.3998 H         1 RES1    0.0000
     20 C7         2.8329   -7.0163   -2.2913 C.2       1 RES1    0.0000
     21 C8         3.8266   -7.5729   -3.2520 C.ar      1 RES1    0.0000
     22 C9         3.7204   -8.9212   -3.5909 C.ar      1 RES1    0.0000
     23 H5         3.0323   -9.4343   -3.2331 H         1 RES1    0.0000
     24 C10        4.6247   -9.4989   -4.4507 C.ar      1 RES1    0.0000
     25 H6         4.5422  -10.3967   -4.6777 H         1 RES1    0.0000
     26 C11        5.6482   -8.7529   -4.9743 C.ar      1 RES1    0.0000
     27 H7         6.2627   -9.1472   -5.5511 H         1 RES1    0.0000
     28 C12        5.7700   -7.4219   -4.6510 C.ar      1 RES1    0.0000
     29 H8         6.4669   -6.9206   -5.0067 H         1 RES1    0.0000
     30 C13        4.8592   -6.8269   -3.7971 C.ar      1 RES1    0.0000
     31 H9         4.9402   -5.9241   -3.5889 H         1 RES1    0.0000
     32 C14        1.1757   -3.6704   -1.2407 C.ar      1 RES1    0.0000
     33 C15        1.8470   -2.6230   -1.8517 C.ar      1 RES1    0.0000
     34 H10        2.6949   -2.7522   -2.2111 H         1 RES1    0.0000
     35 C16        1.2375   -1.3818   -1.9198 C.ar      1 RES1    0.0000
     36 C17       -0.0170   -1.1357   -1.4148 C.ar      1 RES1    0.0000
     37 H11       -0.4065   -0.2932   -1.4813 H         1 RES1    0.0000
     38 C18       -0.6742   -2.1778   -0.8095 C.ar      1 RES1    0.0000
     39 H12       -1.5231   -2.0416   -0.4542 H         1 RES1    0.0000
     40 C19       -0.0903   -3.4289   -0.7213 C.ar      1 RES1    0.0000
     41 H13       -0.5529   -4.1210   -0.3073 H         1 RES1    0.0000
     42 C20        4.7844   -1.8713    0.4142 C.3       1 RES1    0.0000
     43 H14        5.6507   -2.2850    0.3958 H         1 RES1    0.0000
     44 H15        4.7621   -1.2057    1.1055 H         1 RES1    0.0000
     45 H16        4.6088   -1.4576   -0.4342 H         1 RES1    0.0000
     46 C21        0.8262   -3.2255    2.9172 C.3       1 RES1    0.0000
     47 H17        0.6005   -4.0139    3.4168 H         1 RES1    0.0000
     48 H18        0.0436   -2.8945    2.4716 H         1 RES1    0.0000
     49 H19        1.1633   -2.5539    3.5137 H         1 RES1    0.0000
@<TRIPOS>BOND
     1    1   11 2
     2    2   12 2
     3    3   10 2
     4    4   20 2
     5    5    9 2
     6    6    9 2
     7    7   11 1
     8    8   10 1
     9    9   35 1
    10   10   13 1
    11   11    8 1
    12   12    7 1
    13   13   12 1
    14   14   13 1
    15   15   13 1
    16   16   15 1
    17   17   15 1
    18   18   17 1
    19   19   17 1
    20   20   17 1
    21   21   20 1
    22   22   21 ar
    23   23   22 1
    24   24   22 ar
    25   25   24 1
    26   26   24 ar
    27   27   26 1
    28   28   26 ar
    29   29   28 1
    30   30   21 ar
    31   31   30 1
    32   32   15 1
    33   33   32 ar
    34   34   33 1
    35   35   33 ar
    36   36   35 ar
    37   37   36 1
    38   38   36 ar
    39   39   38 1
    40   40   32 ar
    41   41   40 1
    42   42    8 1
    43   43   42 1
    44   44   42 1
    45   45   42 1
    46   46    7 1
    47   47   46 1
    48   48   46 1
    49   49   46 1
    50   28   30 ar
    51   38   40 ar
@<TRIPOS>SUBSTRUCTURE
     1 RES1 1

@<TRIPOS>CRYSIN
   9.5053   12.1670   17.5962  90.0000 108.3640  90.0000  14 1

