# MOL2 file generated by ConQuest
# Please check atom types

@<TRIPOS>MOLECULE
ZUNKEY
    16    17     1
SMALL
NO_CHARGES
****
Generated from CSD

@<TRIPOS>ATOM
      1 O1        -2.9524   -0.4185   11.0733 O.3       1 RES1    0.0000
      2 O2         0.6473    0.8476    1.3421 O.3       1 RES1    0.0000
      3 N1        -2.4188   -0.4635    9.7671 N.2       1 RES1    0.0000
      4 N2         0.4449    0.4297    4.1678 N.3       1 RES1    0.0000
      5 C1        -1.5474    0.4386    9.5459 C.2       1 RES1    0.0000
      6 C2        -1.1238    1.4709   10.5489 C.3       1 RES1    0.0000
      7 C3        -0.9894    0.4321    8.1716 C.ar      1 RES1    0.0000
      8 C4        -0.2172    1.4679    7.6698 C.ar      1 RES1    0.0000
      9 C5         0.2459    1.4803    6.3703 C.ar      1 RES1    0.0000
     10 C6        -0.0362    0.4427    5.4817 C.ar      1 RES1    0.0000
     11 C7        -0.8081   -0.6085    5.9952 C.ar      1 RES1    0.0000
     12 C8        -1.2528   -0.6138    7.2908 C.ar      1 RES1    0.0000
     13 C9         0.8731    1.7147    3.6099 C.3       1 RES1    0.0000
     14 C10        1.5023    1.5484    2.2497 C.3       1 RES1    0.0000
     15 C11        0.3827   -0.4475    1.8765 C.3       1 RES1    0.0000
     16 C12       -0.3153   -0.3688    3.2052 C.3       1 RES1    0.0000
@<TRIPOS>BOND
     1    1    3 1
     2    2   14 1
     3    3    5 2
     4    4   10 1
     5    5    6 1
     6    7    5 1
     7    8    7 ar
     8    9    8 ar
     9   10    9 ar
    10   11   10 ar
    11   12    7 ar
    12   13    4 1
    13   14   13 1
    14   15    2 1
    15   16    4 1
    16   11   12 ar
    17   15   16 1
@<TRIPOS>SUBSTRUCTURE
     1 RES1 1

@<TRIPOS>CRYSIN
   7.8940    5.9190   23.5374  90.0000  92.6290  90.0000 231 1

