# MOL2 file generated by ConQuest
# Please check atom types

@<TRIPOS>MOLECULE
ZUPMOO
    53    56     1
SMALL
NO_CHARGES
****
Generated from CSD

@<TRIPOS>ATOM
      1 N1        -2.6598    7.7684    8.3056 N.pl3     1 RES1    0.0000
      2 N2        -3.3458    3.8918    5.3756 N.pl3     1 RES1    0.0000
      3 O1         0.2306    6.6070    3.1284 O.3       1 RES1    0.0000
      4 O2         0.5552    8.4313    4.4124 O.2       1 RES1    0.0000
      5 O3        -2.1580    8.8776    8.4467 O.2       1 RES1    0.0000
      6 O4        -3.4415    7.2656    9.0901 O.2       1 RES1    0.0000
      7 O5        -4.2933    3.5627    6.0735 O.2       1 RES1    0.0000
      8 O6        -2.9299    3.2295    4.4304 O.2       1 RES1    0.0000
      9 O7         2.5808    9.9025    2.6406 O.2       1 RES1    0.0000
     10 O8         0.6366   11.0007    2.8201 O.3       1 RES1    0.0000
     11 C1         0.7172    7.8318    1.0938 C.3       1 RES1    0.0000
     12 C2         0.7396    9.3730    1.1725 C.3       1 RES1    0.0000
     13 H1        -0.0927    9.8249    0.8502 H         1 RES1    0.0000
     14 C3         1.5255    8.6343    0.1003 C.3       1 RES1    0.0000
     15 C4         0.7902    8.3696   -1.2654 C.3       1 RES1    0.0000
     16 H2         1.3226    8.5831   -2.0847 H         1 RES1    0.0000
     17 C5        -0.6137    8.9308   -1.2454 C.2       1 RES1    0.0000
     18 H3        -0.9355    9.6617   -1.7598 H         1 RES1    0.0000
     19 C6        -1.3141    8.2132   -0.3758 C.2       1 RES1    0.0000
     20 H4        -2.2295    8.3376   -0.1549 H         1 RES1    0.0000
     21 C7        -0.3892    7.1580    0.2021 C.3       1 RES1    0.0000
     22 H5        -0.8413    6.3621    0.6045 H         1 RES1    0.0000
     23 C8         0.4635    6.8730   -1.0640 C.3       1 RES1    0.0000
     24 H6         1.2640    6.3210   -0.8781 H         1 RES1    0.0000
     25 H7        -0.0612    6.4849   -1.8087 H         1 RES1    0.0000
     26 C9         1.3158    7.0036    2.1978 C.3       1 RES1    0.0000
     27 H8         1.9937    7.5488    2.6915 H         1 RES1    0.0000
     28 C10        1.9476    5.6842    1.7623 C.3       1 RES1    0.0000
     29 H9         1.2656    5.1340    1.3009 H         1 RES1    0.0000
     30 H10        2.6754    5.8700    1.1169 H         1 RES1    0.0000
     31 C11        2.5114    4.8985    2.9418 C.3       1 RES1    0.0000
     32 H11        3.0058    4.1199    2.6100 H         1 RES1    0.0000
     33 H12        1.7758    4.5982    3.5149 H         1 RES1    0.0000
     34 H13        3.1151    5.4733    3.4578 H         1 RES1    0.0000
     35 C12        0.0074    7.3878    4.1857 C.2       1 RES1    0.0000
     36 C13       -1.0312    6.7937    5.0982 C.ar      1 RES1    0.0000
     37 C14       -1.3366    7.5024    6.2537 C.ar      1 RES1    0.0000
     38 H14       -0.8820    8.3096    6.4626 H         1 RES1    0.0000
     39 C15       -2.3193    7.0044    7.0943 C.ar      1 RES1    0.0000
     40 C16       -3.0080    5.8371    6.8366 C.ar      1 RES1    0.0000
     41 H15       -3.6874    5.5177    7.4200 H         1 RES1    0.0000
     42 C17       -2.6587    5.1563    5.6866 C.ar      1 RES1    0.0000
     43 C18       -1.6808    5.6036    4.8073 C.ar      1 RES1    0.0000
     44 H16       -1.4625    5.1068    4.0274 H         1 RES1    0.0000
     45 C19        1.4456   10.0723    2.2771 C.2       1 RES1    0.0000
     46 C20        1.2056   11.7334    3.9210 C.3       1 RES1    0.0000
     47 H17        0.6223   12.4881    4.1473 H         1 RES1    0.0000
     48 H18        2.0911   12.0683    3.6675 H         1 RES1    0.0000
     49 H19        1.2906   11.1415    4.6982 H         1 RES1    0.0000
     50 C21        3.0363    8.6487    0.0219 C.3       1 RES1    0.0000
     51 H20        3.4110    8.4483    0.9049 H         1 RES1    0.0000
     52 H21        3.3404    9.5341   -0.2690 H         1 RES1    0.0000
     53 H22        3.3368    7.9733   -0.6219 H         1 RES1    0.0000
@<TRIPOS>BOND
     1    1    5 2
     2    2    7 2
     3    3   26 1
     4    4   35 2
     5    6    1 2
     6    8    2 2
     7    9   45 2
     8   10   45 1
     9   11   12 1
    10   12   13 1
    11   14   11 1
    12   15   14 1
    13   16   15 1
    14   17   15 1
    15   18   17 1
    16   19   17 2
    17   20   19 1
    18   21   11 1
    19   22   21 1
    20   23   15 1
    21   24   23 1
    22   25   23 1
    23   26   11 1
    24   27   26 1
    25   28   26 1
    26   29   28 1
    27   30   28 1
    28   31   28 1
    29   32   31 1
    30   33   31 1
    31   34   31 1
    32   35    3 1
    33   36   35 1
    34   37   36 ar
    35   38   37 1
    36   39    1 1
    37   40   39 ar
    38   41   40 1
    39   42    2 1
    40   43   36 ar
    41   44   43 1
    42   45   12 1
    43   46   10 1
    44   47   46 1
    45   48   46 1
    46   49   46 1
    47   50   14 1
    48   51   50 1
    49   52   50 1
    50   53   50 1
    51   12   14 1
    52   19   21 1
    53   21   23 1
    54   37   39 ar
    55   40   42 ar
    56   42   43 ar
@<TRIPOS>SUBSTRUCTURE
     1 RES1 1

@<TRIPOS>CRYSIN
   8.1567   10.7545   12.9755 109.9800 103.4780  97.2740   2 1

