# MOL2 file generated by ConQuest
# Please check atom types

@<TRIPOS>MOLECULE
ZUQHAW
    47    51     1
SMALL
NO_CHARGES
****
Generated from CSD

@<TRIPOS>ATOM
      1 C1         1.7946    5.4614    8.8202 C.2       1 RES1    0.0000
      2 N1         2.1175    4.3659    0.9441 N.pl3     1 RES1    0.0000
      3 O1         3.6021    5.8475   10.3019 O.2       1 RES1    0.0000
      4 C2         2.5791    5.2340   10.0605 C.2       1 RES1    0.0000
      5 O2        -0.8702    3.0941    8.9885 O.2       1 RES1    0.0000
      6 C3         1.9894    4.2113   10.9708 C.ar      1 RES1    0.0000
      7 O3         2.1831    6.4215    7.9488 O.3       1 RES1    0.0000
      8 C4         2.6143    3.9700   12.1936 C.ar      1 RES1    0.0000
      9 H1         3.4004    4.4505   12.4272 H         1 RES1    0.0000
     10 O4         3.1045    5.1953    5.8006 O.2       1 RES1    0.0000
     11 C5         2.0910    3.0295   13.0733 C.ar      1 RES1    0.0000
     12 H2         2.5170    2.8684   13.9059 H         1 RES1    0.0000
     13 O5         3.1590    3.7749    1.2316 O.2       1 RES1    0.0000
     14 C6         0.9434    2.3257   12.7307 C.ar      1 RES1    0.0000
     15 H3         0.5859    1.6844   13.3329 H         1 RES1    0.0000
     16 O6         1.5823    4.3267   -0.1554 O.2       1 RES1    0.0000
     17 C7         0.3130    2.5517   11.5116 C.ar      1 RES1    0.0000
     18 H4        -0.4693    2.0630   11.2836 H         1 RES1    0.0000
     19 C8         0.8268    3.4936   10.6253 C.ar      1 RES1    0.0000
     20 C9         0.1154    3.7377    9.3231 C.2       1 RES1    0.0000
     21 C10        0.6749    4.8005    8.4890 C.2       1 RES1    0.0000
     22 C11        0.0947    5.3888    7.2189 C.3       1 RES1    0.0000
     23 H5        -0.0393    4.6762    6.5293 H         1 RES1    0.0000
     24 C12        1.2758    6.3369    6.8112 C.3       1 RES1    0.0000
     25 H6         0.9228    7.2454    6.5875 H         1 RES1    0.0000
     26 C13        2.0482    5.7732    5.6299 C.2       1 RES1    0.0000
     27 C14        1.4353    5.8884    4.2752 C.ar      1 RES1    0.0000
     28 C15        2.0529    5.1756    3.2469 C.ar      1 RES1    0.0000
     29 H7         2.8562    4.6939    3.4067 H         1 RES1    0.0000
     30 C16        1.4757    5.1830    1.9942 C.ar      1 RES1    0.0000
     31 C17        0.3262    5.8996    1.7029 C.ar      1 RES1    0.0000
     32 H8        -0.0388    5.8999    0.8256 H         1 RES1    0.0000
     33 C18       -0.2797    6.6199    2.7295 C.ar      1 RES1    0.0000
     34 H9        -1.0681    7.1203    2.5544 H         1 RES1    0.0000
     35 C19        0.2625    6.6116    4.0108 C.ar      1 RES1    0.0000
     36 H10       -0.1626    7.0966    4.7082 H         1 RES1    0.0000
     37 C20       -1.2098    6.1200    7.4937 C.ar      1 RES1    0.0000
     38 C21       -2.4234    5.5499    7.1249 C.ar      1 RES1    0.0000
     39 H11       -2.4369    4.7294    6.6458 H         1 RES1    0.0000
     40 C22       -3.6208    6.1821    7.4578 C.ar      1 RES1    0.0000
     41 H12       -4.4482    5.7875    7.2067 H         1 RES1    0.0000
     42 C23       -3.6113    7.3799    8.1498 C.ar      1 RES1    0.0000
     43 H13       -4.4316    7.7981    8.3844 H         1 RES1    0.0000
     44 C24       -2.4050    7.9717    8.5004 C.ar      1 RES1    0.0000
     45 H14       -2.3958    8.8038    8.9598 H         1 RES1    0.0000
     46 C25       -1.2098    7.3369    8.1755 C.ar      1 RES1    0.0000
     47 H15       -0.3836    7.7373    8.4208 H         1 RES1    0.0000
@<TRIPOS>BOND
     1    1    4 1
     2    2   13 2
     3    3    4 2
     4    4    6 1
     5    5   20 2
     6    6    8 ar
     7    7    1 1
     8    8    9 1
     9   10   26 2
    10   11    8 ar
    11   12   11 1
    12   14   11 ar
    13   15   14 1
    14   16    2 2
    15   17   14 ar
    16   18   17 1
    17   19    6 ar
    18   20   19 1
    19   21    1 2
    20   22   21 1
    21   23   22 1
    22   24    7 1
    23   25   24 1
    24   26   24 1
    25   27   26 1
    26   28   27 ar
    27   29   28 1
    28   30    2 1
    29   31   30 ar
    30   32   31 1
    31   33   31 ar
    32   34   33 1
    33   35   27 ar
    34   36   35 1
    35   37   22 1
    36   38   37 ar
    37   39   38 1
    38   40   38 ar
    39   41   40 1
    40   42   40 ar
    41   43   42 1
    42   44   42 ar
    43   45   44 1
    44   46   37 ar
    45   47   46 1
    46   17   19 ar
    47   20   21 1
    48   22   24 1
    49   28   30 ar
    50   33   35 ar
    51   44   46 ar
@<TRIPOS>SUBSTRUCTURE
     1 RES1 1

@<TRIPOS>CRYSIN
   9.4364    8.4514   24.2818  90.0000  90.3370  90.0000 231 1

