# MOL2 file generated by ConQuest
# Please check atom types

@<TRIPOS>MOLECULE
ZURLOP
    46    46     1
SMALL
NO_CHARGES
****
Generated from CSD

@<TRIPOS>ATOM
      1 N1         2.8486    6.7607    8.9477 N.pl3     1 RES1    0.0000
      2 O1         3.7495    6.9712    8.1905 O.2       1 RES1    0.0000
      3 O2         1.7477    7.2071    8.7548 O.2       1 RES1    0.0000
      4 O3         0.7190    2.8411    7.7269 O.2       1 RES1    0.0000
      5 N2        -0.6601    0.8172   11.5835 N.2       1 RES1    0.0000
      6 N3        -0.7805    0.0945   10.4424 N.3       1 RES1    0.0000
      7 C1         3.0675    3.4543   10.9374 C.3       1 RES1    0.0000
      8 H1         2.8369    2.5506   10.7109 H         1 RES1    0.0000
      9 H2         2.5929    3.7181   11.7293 H         1 RES1    0.0000
     10 H3         4.0123    3.5141   11.0958 H         1 RES1    0.0000
     11 C2         3.4206    3.9520    8.5198 C.3       1 RES1    0.0000
     12 H4         3.1597    3.0570    8.2891 H         1 RES1    0.0000
     13 H5         4.3674    3.9783    8.6792 H         1 RES1    0.0000
     14 H6         3.2013    4.5456    7.7972 H         1 RES1    0.0000
     15 C3         2.6834    4.3878    9.7742 C.3       1 RES1    0.0000
     16 C4         4.5606    6.0089   10.5347 C.3       1 RES1    0.0000
     17 H7         4.7374    6.9204   10.7811 H         1 RES1    0.0000
     18 H8         5.0961    5.7740    9.7732 H         1 RES1    0.0000
     19 H9         4.7777    5.4317   11.2699 H         1 RES1    0.0000
     20 C5         2.2367    6.4346   11.3003 C.3       1 RES1    0.0000
     21 H10        2.5347    7.3259   11.5006 H         1 RES1    0.0000
     22 H11        2.3169    5.8865   12.0828 H         1 RES1    0.0000
     23 H12        1.3187    6.4609   11.0203 H         1 RES1    0.0000
     24 C6         3.0886    5.8551   10.1864 C.3       1 RES1    0.0000
     25 C7         1.1541    4.3060    9.5540 C.3       1 RES1    0.0000
     26 H13        0.7134    4.4331   10.4088 H         1 RES1    0.0000
     27 H14        0.8873    5.0379    8.9750 H         1 RES1    0.0000
     28 C8         0.6621    3.0152    8.9509 C.2       1 RES1    0.0000
     29 C9         0.0822    1.9875    9.8047 C.2       1 RES1    0.0000
     30 C10       -0.1387    1.9652   11.1891 C.2       1 RES1    0.0000
     31 H15        0.0587    2.6725   11.7597 H         1 RES1    0.0000
     32 C11       -0.3652    0.7443    9.3736 C.2       1 RES1    0.0000
     33 H16       -0.3707    0.4314    8.4978 H         1 RES1    0.0000
     34 C12       -1.2844   -1.2931   10.5021 C.3       1 RES1    0.0000
     35 H17       -0.7309   -1.8121   11.1063 H         1 RES1    0.0000
     36 H18       -1.2269   -1.6949    9.6211 H         1 RES1    0.0000
     37 C13       -2.7243   -1.3280   10.9804 C.3       1 RES1    0.0000
     38 H19       -2.9781   -2.2552   11.1084 H         1 RES1    0.0000
     39 H20       -2.7666   -0.8932   11.8457 H         1 RES1    0.0000
     40 C14       -3.7327   -0.6892   10.0899 C.3       1 RES1    0.0000
     41 H21       -3.4247    0.2016    9.8571 H         1 RES1    0.0000
     42 H22       -4.5654   -0.5931   10.5787 H         1 RES1    0.0000
     43 C15       -4.0025   -1.4582    8.8166 C.3       1 RES1    0.0000
     44 H23       -4.6760   -1.0057    8.3048 H         1 RES1    0.0000
     45 H24       -4.3082   -2.3420    9.0358 H         1 RES1    0.0000
     46 H25       -3.1943   -1.5191    8.3016 H         1 RES1    0.0000
@<TRIPOS>BOND
     1    1    2 2
     2    3    1 2
     3    4   28 2
     4    5    6 1
     5    6   32 1
     6    7    8 1
     7    9    7 1
     8   10    7 1
     9   11   12 1
    10   13   11 1
    11   14   11 1
    12   15    7 1
    13   16   17 1
    14   18   16 1
    15   19   16 1
    16   20   21 1
    17   22   20 1
    18   23   20 1
    19   24    1 1
    20   25   15 1
    21   26   25 1
    22   27   25 1
    23   28   25 1
    24   29   28 1
    25   30    5 2
    26   31   30 1
    27   32   29 2
    28   33   32 1
    29   34    6 1
    30   35   34 1
    31   36   34 1
    32   37   34 1
    33   38   37 1
    34   39   37 1
    35   40   37 1
    36   41   40 1
    37   42   40 1
    38   43   40 1
    39   44   43 1
    40   45   43 1
    41   46   43 1
    42   11   15 1
    43   15   24 1
    44   16   24 1
    45   20   24 1
    46   29   30 1
@<TRIPOS>SUBSTRUCTURE
     1 RES1 1

@<TRIPOS>CRYSIN
   6.7564   23.4430   10.4906  90.0000  91.1460  90.0000   9 1

