# MOL2 file generated by ConQuest
# Please check atom types

@<TRIPOS>MOLECULE
ZURLIJ
    43    43     1
SMALL
NO_CHARGES
****
Generated from CSD

@<TRIPOS>ATOM
      1 C1         0.9586    1.9804    2.3608 C.3       1 RES1    0.0000
      2 N1         4.6149    1.9420    6.8305 N.2       1 RES1    0.0000
      3 N2         4.3126    0.6804    7.2203 N.3       1 RES1    0.0000
      4 C2         1.6814    0.8561    1.6102 C.3       1 RES1    0.0000
      5 H1         1.6497    0.0508    2.1320 H         1 RES1    0.0000
      6 H2         2.5967    1.1061    1.4625 H         1 RES1    0.0000
      7 H3         1.2503    0.7072    0.7651 H         1 RES1    0.0000
      8 C3        -0.5051    1.6162    2.5436 C.3       1 RES1    0.0000
      9 H4        -0.5718    0.8076    3.0581 H         1 RES1    0.0000
     10 H5        -0.9113    1.4831    1.6840 H         1 RES1    0.0000
     11 H6        -0.9567    2.3269    3.0048 H         1 RES1    0.0000
     12 O1         1.2279   -0.0641    4.5073 O.2       1 RES1    0.0000
     13 C4         0.5088    4.5352    2.2966 C.3       1 RES1    0.0000
     14 H7         0.5575    5.3121    1.7349 H         1 RES1    0.0000
     15 H8         1.0508    4.6699    3.0775 H         1 RES1    0.0000
     16 H9        -0.4025    4.3877    2.5605 H         1 RES1    0.0000
     17 C5         0.3047    3.2344    0.1949 C.3       1 RES1    0.0000
     18 H10        0.3724    4.0760   -0.2615 H         1 RES1    0.0000
     19 H11       -0.6206    3.0210    0.3378 H         1 RES1    0.0000
     20 H12        0.7134    2.5474   -0.3366 H         1 RES1    0.0000
     21 C6         1.0143    3.3271    1.5327 C.3       1 RES1    0.0000
     22 C7         1.6209    2.1626    3.7094 C.3       1 RES1    0.0000
     23 H13        2.4764    2.5936    3.5557 H         1 RES1    0.0000
     24 H14        1.0779    2.7845    4.2179 H         1 RES1    0.0000
     25 C8         1.8702    0.9638    4.5823 C.2       1 RES1    0.0000
     26 C9         2.9313    1.1090    5.5751 C.2       1 RES1    0.0000
     27 C10        3.7758    2.1863    5.8523 C.2       1 RES1    0.0000
     28 H15        3.7464    2.9930    5.3898 H         1 RES1    0.0000
     29 C11        3.3309    0.1604    6.4964 C.2       1 RES1    0.0000
     30 H16        2.9733   -0.6929    6.5932 H         1 RES1    0.0000
     31 C12        5.0743    0.0674    8.3099 C.3       1 RES1    0.0000
     32 H17        5.2132    0.7245    9.0085 H         1 RES1    0.0000
     33 H18        4.5583   -0.6625    8.6852 H         1 RES1    0.0000
     34 C13        6.3643   -0.4396    7.8729 C.3       1 RES1    0.0000
     35 H19        6.8691    0.2834    7.4685 H         1 RES1    0.0000
     36 H20        6.2261   -1.1204    7.1961 H         1 RES1    0.0000
     37 C14        7.1760   -1.0349    9.0291 C.3       1 RES1    0.0000
     38 H21        8.0148   -1.3625    8.6961 H         1 RES1    0.0000
     39 H22        6.6851   -1.7589    9.4249 H         1 RES1    0.0000
     40 H23        7.3370   -0.3582    9.6901 H         1 RES1    0.0000
     41 N3         2.5129    3.6229    1.2312 N.pl3     1 RES1    0.0000
     42 O2         3.1736    4.2152    2.0424 O.2       1 RES1    0.0000
     43 O3         2.9750    3.2257    0.1973 O.2       1 RES1    0.0000
@<TRIPOS>BOND
     1    1    4 1
     2    2    3 1
     3    3   29 1
     4    4    5 1
     5    6    4 1
     6    7    4 1
     7    8    1 1
     8    9    8 1
     9   10    8 1
    10   11    8 1
    11   12   25 2
    12   13   14 1
    13   15   13 1
    14   16   13 1
    15   17   18 1
    16   19   17 1
    17   20   17 1
    18   21    1 1
    19   22    1 1
    20   23   22 1
    21   24   22 1
    22   25   22 1
    23   26   25 1
    24   27    2 2
    25   28   27 1
    26   29   26 2
    27   30   29 1
    28   31    3 1
    29   32   31 1
    30   33   31 1
    31   34   31 1
    32   35   34 1
    33   36   34 1
    34   37   34 1
    35   38   37 1
    36   39   37 1
    37   40   37 1
    38   41   21 1
    39   42   41 2
    40   43   41 2
    41   13   21 1
    42   17   21 1
    43   26   27 1
@<TRIPOS>SUBSTRUCTURE
     1 RES1 1

@<TRIPOS>CRYSIN
   6.4450   10.2330   12.6080 102.7200  98.0200  97.9700   2 1

