# MOL2 file generated by ConQuest
# Please check atom types

@<TRIPOS>MOLECULE
ZURMEG01
    36    35     2
SMALL
USER_CHARGES
****
Generated from CSD

@<TRIPOS>ATOM
      1 O1        -3.4866    2.3305   11.4014 O.2       1 RES1    0.0000
      2 C1        -2.4123    2.5096   10.7864 C.2       1 RES1    0.0000
      3 C2        -1.7488    1.4221    9.9606 C.3       1 RES1    0.0000
      4 C3        -2.7563    0.5732    9.2195 C.3       1 RES1    0.0000
      5 H1        -3.3015    0.0882    9.8575 H         1 RES1    0.0000
      6 H2        -2.2906   -0.0561    8.6481 H         1 RES1    0.0000
      7 H3        -3.3233    1.1434    8.6770 H         1 RES1    0.0000
      8 C4        -0.9939    0.5426   10.9618 C.3       1 RES1    0.0000
      9 H4        -1.6303    0.0401   11.4949 H         1 RES1    0.0000
     10 H5        -0.4556    1.1033   11.5427 H         1 RES1    0.0000
     11 H6        -0.4177   -0.0722   10.4811 H         1 RES1    0.0000
     12 C5        -0.7993    2.2630    9.0707 C.3       1 RES1    0.0000
     13 C6        -1.5086    2.7792    7.8024 C.3       1 RES1    0.0000
     14 H7        -0.8847    3.2974    7.2709 H         1 RES1    0.0000
     15 H8        -2.2591    3.3387    8.0568 H         1 RES1    0.0000
     16 H9        -1.8294    2.0257    7.2820 H         1 RES1    0.0000
     17 C7         0.5159    1.6138    8.6815 C.3       1 RES1    0.0000
     18 H10        1.0253    2.2239    8.1257 H         1 RES1    0.0000
     19 H11        0.3400    0.7974    8.1891 H         1 RES1    0.0000
     20 H12        1.0228    1.4058    9.4818 H         1 RES1    0.0000
     21 N1        -0.5946    3.4880    9.9420 N.pl3     1 RES1    1.0000
     22 O2         0.3698    4.2811    9.7710 O.2       1 RES1   -1.0000
     23 C8        -1.6257    3.6556   10.8322 C.2       1 RES1    0.0000
     24 C9        -1.8647    4.8239   11.6291 C.2       1 RES1    0.0000
     25 C10       -2.9522    5.1011   12.4760 C.2       1 RES1    0.0000
     26 H13       -3.6571    4.5005   12.6376 H         1 RES1    0.0000
     27 N2        -2.8704    6.3026   13.0193 N.2       1 RES1    0.0000
     28 N3        -1.7177    6.8136   12.5236 N.pl3     1 RES1    0.0000
     29 C11       -1.2913    8.1450   12.9163 C.3       1 RES1    0.0000
     30 H14       -0.4537    8.3593   12.4764 H         1 RES1    0.0000
     31 H15       -1.1679    8.1749   13.8782 H         1 RES1    0.0000
     32 H16       -1.9668    8.7901   12.6565 H         1 RES1    0.0000
     33 C12       -1.0915    5.9756   11.6970 C.2       1 RES1    0.0000
     34 H17       -0.2825    6.1343   11.2470 H         1 RES1    0.0000
     35 N4        -2.4123    2.5096   10.7864 Du        2 SUP2    0.0000
     36 C13       -0.5946    3.4880    9.9420 Du        2 SUP2    0.0000
@<TRIPOS>BOND
     1    1    2 2
     2    2    3 1
     3    3    4 1
     4    4    5 1
     5    6    4 1
     6    7    4 1
     7    8    3 1
     8    9    8 1
     9   10    8 1
    10   11    8 1
    11   12    3 1
    12   13   12 1
    13   14   13 1
    14   15   13 1
    15   16   13 1
    16   17   12 1
    17   18   17 1
    18   19   17 1
    19   20   17 1
    20   21   12 1
    21   22   21 1
    22   23    2 1
    23   24   23 1
    24   25   24 1
    25   26   25 1
    26   27   25 2
    27   28   27 1
    28   29   28 1
    29   30   29 1
    30   31   29 1
    31   32   29 1
    32   33   24 2
    33   34   33 1
    34   21   23 2
    35   28   33 1
@<TRIPOS>SUBSTRUCTURE
     1 RES1 1
     2 SUP2 35

@<TRIPOS>CRYSIN
   9.7725   11.4574   11.6971  90.0000 108.1380  90.0000 231 1

