# MOL2 file generated by ConQuest
# Please check atom types

@<TRIPOS>MOLECULE
ZURQOU
    40    40     2
SMALL
NO_CHARGES
****
Generated from CSD

@<TRIPOS>ATOM
      1 O1         3.3426    7.0350    3.9167 O.2       1 RES1    0.0000
      2 C1         4.1790    7.0350    3.0239 C.2       1 RES1    0.0000
      3 C2         5.6778    7.0350    3.2784 C.3       1 RES1    0.0000
      4 C3         6.0155    8.2694    4.1056 C.3       1 RES1    0.0000
      5 H1         5.5469    8.2310    4.9433 H         1 RES1    0.0000
      6 H2         5.7495    9.0573    3.6267 H         1 RES1    0.0000
      7 H3         6.9614    8.2966    4.2680 H         1 RES1    0.0000
      8 C4         6.2823    7.0350    1.8507 C.3       1 RES1    0.0000
      9 C5         7.0772    5.7837    1.4980 C.3       1 RES1    0.0000
     10 H4         6.5541    5.0052    1.7012 H         1 RES1    0.0000
     11 H5         7.8892    5.7668    2.0079 H         1 RES1    0.0000
     12 H6         7.2872    5.7922    0.5613 H         1 RES1    0.0000
     13 N1         5.0518    7.0350    0.9722 N.2       1 RES1    0.0000
     14 O2         5.1769    7.0350   -0.2871 O.2       1 RES1    0.0000
     15 C6         3.9021    7.0350    1.6188 C.2       1 RES1    0.0000
     16 C7         2.6139    7.0350    0.9692 C.2       1 RES1    0.0000
     17 C8         1.3555    7.0350    1.5644 C.2       1 RES1    0.0000
     18 H7         1.2178    7.0350    2.4845 H         1 RES1    0.0000
     19 N2         0.3878    7.0350    0.6799 N.2       1 RES1    0.0000
     20 N3         1.0116    7.0350   -0.5091 N.2       1 RES1    0.0000
     21 C9         0.2444    7.0350   -1.7555 C.2       1 RES1    0.0000
     22 C10       -0.1828    5.8897   -2.1944 C.3       1 RES1    0.0000
     23 H8        -0.6795    6.0229   -3.0057 H         1 RES1    0.0000
     24 H9        -0.7510    5.4854   -1.5342 H         1 RES1    0.0000
     25 H10        0.5662    5.3147   -2.3682 H         1 RES1    0.0000
     26 C11        2.3346    7.0350   -0.3694 C.2       1 RES1    0.0000
     27 H11        2.9582    7.0350   -1.0598 H         1 RES1    0.0000
     28 H12       -0.2841    7.7967   -2.0094 Du        2 SUP2    0.0000
     29 C3F        6.0155    5.8006    4.1056 C.3       1 RES1    0.0000
     30 H1F        5.5469    5.8391    4.9433 H         1 RES1    0.0000
     31 H2F        5.7495    5.0127    3.6267 H         1 RES1    0.0000
     32 H3F        6.9614    5.7734    4.2680 H         1 RES1    0.0000
     33 C5F        7.0772    8.2863    1.4980 C.3       1 RES1    0.0000
     34 H4F        6.5541    9.0648    1.7012 H         1 RES1    0.0000
     35 H5F        7.8892    8.3032    2.0079 H         1 RES1    0.0000
     36 H6F        7.2872    8.2778    0.5613 H         1 RES1    0.0000
     37 C10F      -0.1828    8.1803   -2.1944 C.3       1 RES1    0.0000
     38 H8F       -0.6795    8.0471   -3.0057 H         1 RES1    0.0000
     39 H9F       -0.7510    8.5846   -1.5342 H         1 RES1    0.0000
     40 H10F       0.5662    8.7553   -2.3682 H         1 RES1    0.0000
@<TRIPOS>BOND
     1    1    2 1
     2    2    3 1
     3    3    4 1
     4    4    5 1
     5    6    4 1
     6    7    4 1
     7    8    3 1
     8    9    8 1
     9   10    9 1
    10   11    9 1
    11   12    9 1
    12   13    8 1
    13   14   13 1
    14   15    2 1
    15   16   15 1
    16   17   16 1
    17   18   17 1
    18   19   17 1
    19   20   19 1
    20   21   20 1
    21   22   21 1
    22   23   22 1
    23   24   22 1
    24   25   22 1
    25   26   16 1
    26   27   26 1
    27   29    3 1
    28   30   29 1
    29   31   29 1
    30   32   29 1
    31   33    8 1
    32   34   33 1
    33   35   33 1
    34   36   33 1
    35   37   21 1
    36   38   37 1
    37   39   37 1
    38   40   37 1
    39   13   15 1
    40   20   26 1
@<TRIPOS>SUBSTRUCTURE
     1 RES1 1
     2 SUP2 28

@<TRIPOS>CRYSIN
  19.8670    9.3800    7.5540  90.0000  90.0000  90.0000  62 1

