# MOL2 file generated by ConQuest
# Please check atom types

@<TRIPOS>MOLECULE
ZURVAL
    32    33     1
SMALL
NO_CHARGES
****
Generated from CSD

@<TRIPOS>ATOM
      1 C1        18.4898   25.8901    2.2174 C.ar      1 RES1    0.0000
      2 C2        19.1208   24.7941    1.6290 C.ar      1 RES1    0.0000
      3 H1        20.0473   24.8231    1.4211 H         1 RES1    0.0000
      4 C3        18.3679   23.6634    1.3547 C.ar      1 RES1    0.0000
      5 H2        18.7847   22.9037    0.9651 H         1 RES1    0.0000
      6 C4        16.9879   23.6312    1.6489 C.ar      1 RES1    0.0000
      7 C5        16.3627   24.7636    2.2083 C.ar      1 RES1    0.0000
      8 H3        15.4289   24.7597    2.3858 H         1 RES1    0.0000
      9 C6        17.1269   25.8870    2.4973 C.ar      1 RES1    0.0000
     10 H4        16.7193   26.6523    2.8858 H         1 RES1    0.0000
     11 C7        15.1004   22.0245    1.8550 C.2       1 RES1    0.0000
     12 C8        13.8898   19.8529    2.0777 C.ar      1 RES1    0.0000
     13 C9        14.0712   18.4608    1.9306 C.ar      1 RES1    0.0000
     14 H5        14.8719   18.1283    1.5406 H         1 RES1    0.0000
     15 C10       13.0941   17.5764    2.3487 C.ar      1 RES1    0.0000
     16 H6        13.2121   16.6382    2.2526 H         1 RES1    0.0000
     17 C11       11.9300   18.0991    2.9162 C.ar      1 RES1    0.0000
     18 C12       11.7214   19.4710    3.0692 C.ar      1 RES1    0.0000
     19 H7        10.9147   19.7941    3.4540 H         1 RES1    0.0000
     20 C13       12.7066   20.3587    2.6517 C.ar      1 RES1    0.0000
     21 H8        12.5842   21.2965    2.7526 H         1 RES1    0.0000
     22 N1        19.2939   27.0533    2.5824 N.pl3     1 RES1    0.0000
     23 N2        16.3285   22.4403    1.3554 N.am      1 RES1    0.0000
     24 H9        16.7318   21.8940    0.7956 H         1 RES1    0.0000
     25 N3        14.9303   20.6616    1.6294 N.am      1 RES1    0.0000
     26 H10       15.5511   20.2648    1.1481 H         1 RES1    0.0000
     27 N4        10.9323   17.1821    3.4074 N.pl3     1 RES1    0.0000
     28 O1        14.3077   22.7359    2.4309 O.2       1 RES1    0.0000
     29 O2        18.7339   28.0000    3.1484 O.2       1 RES1    0.0000
     30 O3        20.5007   27.0333    2.3223 O.2       1 RES1    0.0000
     31 O4        11.0858   15.9641    3.2368 O.2       1 RES1    0.0000
     32 O5         9.9549   17.6457    4.0119 O.2       1 RES1    0.0000
@<TRIPOS>BOND
     1    1    2 ar
     2    2    3 1
     3    4    2 ar
     4    5    4 1
     5    6    4 ar
     6    7    6 ar
     7    8    7 1
     8    9    1 ar
     9   10    9 1
    10   11   23 1
    11   12   13 ar
    12   13   14 1
    13   15   13 ar
    14   16   15 1
    15   17   15 ar
    16   18   17 ar
    17   19   18 1
    18   20   12 ar
    19   21   20 1
    20   22    1 1
    21   23    6 1
    22   24   23 1
    23   25   11 1
    24   26   25 1
    25   27   17 1
    26   28   11 2
    27   29   22 2
    28   30   22 2
    29   31   27 2
    30   32   27 2
    31    7    9 ar
    32   12   25 1
    33   18   20 ar
@<TRIPOS>SUBSTRUCTURE
     1 RES1 1

@<TRIPOS>CRYSIN
  13.8899   24.3890    3.6682  90.0000  90.0000  90.0000  33 1

