# MOL2 file generated by ConQuest
# Please check atom types

@<TRIPOS>MOLECULE
ZURXER
    61    65     1
SMALL
NO_CHARGES
****
Generated from CSD

@<TRIPOS>ATOM
      1 O1        -0.3955    0.6829    8.4654 O.2       1 RES1    0.0000
      2 O2         4.2312    3.0835    4.2516 O.3       1 RES1    0.0000
      3 O3        -1.0209    5.2815    7.6217 O.2       1 RES1    0.0000
      4 O4        -4.3483    1.2379   14.6153 O.3       1 RES1    0.0000
      5 N1        -0.3135    2.5836    9.7291 N.am      1 RES1    0.0000
      6 O5        -7.4286    4.3321    8.9127 O.2       1 RES1    0.0000
      7 C1         2.7866    1.8259    5.7537 C.ar      1 RES1    0.0000
      8 H1         3.3307    1.0718    5.7170 H         1 RES1    0.0000
      9 N2        -1.7582    2.9478    5.0999 N.3       1 RES1    0.0000
     10 C2        -4.8308    1.9011    8.6468 C.ar      1 RES1    0.0000
     11 H2        -5.1786    1.2357    9.1954 H         1 RES1    0.0000
     12 C3        -0.4124    1.9018    8.5770 C.2       1 RES1    0.0000
     13 C4         3.1294    2.9697    5.0452 C.ar      1 RES1    0.0000
     14 C5         0.7950    2.9312    6.6066 C.ar      1 RES1    0.0000
     15 C6         1.1656    4.0820    5.9031 C.ar      1 RES1    0.0000
     16 H3         0.6298    4.8415    5.9517 H         1 RES1    0.0000
     17 C7        -3.0853    2.7386    7.2018 C.ar      1 RES1    0.0000
     18 C8        -5.0422    4.1014    7.6270 C.ar      1 RES1    0.0000
     19 H4        -5.5239    4.8876    7.5035 H         1 RES1    0.0000
     20 C9        -3.3688    1.4716   13.6922 C.ar      1 RES1    0.0000
     21 C10        2.3232    4.1076    5.1324 C.ar      1 RES1    0.0000
     22 H5         2.5609    4.8820    4.6751 H         1 RES1    0.0000
     23 C11       -3.6026    1.7366    8.0227 C.ar      1 RES1    0.0000
     24 H6        -3.1202    0.9521    8.1523 H         1 RES1    0.0000
     25 C12       -1.6039    1.5210    5.4816 C.3       1 RES1    0.0000
     26 H7        -2.3549    0.9263    5.3276 H         1 RES1    0.0000
     27 H8        -0.7302    1.1142    5.3681 H         1 RES1    0.0000
     28 O6        -7.2137    2.4127    9.8581 O.2       1 RES1    0.0000
     29 C13       -3.8154    3.9178    7.0075 C.ar      1 RES1    0.0000
     30 H9        -3.4735    4.5855    6.4567 H         1 RES1    0.0000
     31 C14       -0.0125    1.9513   11.0020 C.3       1 RES1    0.0000
     32 H10        0.6845    2.4604   11.4452 H         1 RES1    0.0000
     33 H11        0.3346    1.0608   10.8333 H         1 RES1    0.0000
     34 C15       -0.7177    4.2371    8.1316 C.2       1 RES1    0.0000
     35 C16       -2.5142    1.9535   11.4953 C.ar      1 RES1    0.0000
     36 H12       -2.6720    2.1565   10.6010 H         1 RES1    0.0000
     37 N3        -6.8218    3.2872    9.1126 N.pl3     1 RES1    0.0000
     38 C17       -1.2063    1.8397   11.9396 C.ar      1 RES1    0.0000
     39 C18       -5.5327    3.0905    8.4314 C.ar      1 RES1    0.0000
     40 C19       -2.0576    1.3714   14.1603 C.ar      1 RES1    0.0000
     41 H13       -1.8993    1.1786   15.0562 H         1 RES1    0.0000
     42 C20        1.6150    1.8143    6.5261 C.ar      1 RES1    0.0000
     43 H14        1.3827    1.0442    6.9924 H         1 RES1    0.0000
     44 C21       -3.6042    1.7727   12.3550 C.ar      1 RES1    0.0000
     45 H15       -4.4745    1.8526   12.0361 H         1 RES1    0.0000
     46 C22       -1.7498    2.5646    6.5196 C.3       1 RES1    0.0000
     47 C23       -0.4869    4.0255    9.6155 C.3       1 RES1    0.0000
     48 C24        5.0687    1.9298    4.1367 C.3       1 RES1    0.0000
     49 H16        5.8188    2.1344    3.5742 H         1 RES1    0.0000
     50 H17        4.5663    1.2081    3.7524 H         1 RES1    0.0000
     51 H18        5.3815    1.6740    5.0069 H         1 RES1    0.0000
     52 C25       -5.6946    1.4902   14.2081 C.3       1 RES1    0.0000
     53 H19       -5.9037    0.9503   13.4418 H         1 RES1    0.0000
     54 H20       -5.7928    2.4180   13.9824 H         1 RES1    0.0000
     55 H21       -6.2927    1.2707   14.9260 H         1 RES1    0.0000
     56 C26       -0.9887    1.5585   13.2904 C.ar      1 RES1    0.0000
     57 H22       -0.1185    1.4954   13.6125 H         1 RES1    0.0000
     58 C27       -0.5267    2.9001    7.4062 C.3       1 RES1    0.0000
     59 H23       -1.2141    4.3277   10.0383 H         1 RES1    0.0000
     60 H24        0.3032    4.5045    9.9277 H         1 RES1    0.0000
     61 H25       -0.9109    3.2338    4.8410 H         1 RES1    0.0000
@<TRIPOS>BOND
     1    1   12 2
     2    2   13 1
     3    3   34 2
     4    4   20 1
     5    5   12 1
     6    6   37 2
     7    7    8 1
     8    9   25 1
     9   10   11 1
    10   12   58 1
    11   13    7 ar
    12   14   15 ar
    13   15   16 1
    14   17   23 ar
    15   18   19 1
    16   20   40 ar
    17   21   13 ar
    18   22   21 1
    19   23   10 ar
    20   24   23 1
    21   25   26 1
    22   27   25 1
    23   28   37 2
    24   29   17 ar
    25   30   29 1
    26   31    5 1
    27   32   31 1
    28   33   31 1
    29   34   47 1
    30   35   36 1
    31   37   39 1
    32   38   31 1
    33   39   10 ar
    34   40   41 1
    35   42    7 ar
    36   43   42 1
    37   44   20 ar
    38   45   44 1
    39   46    9 1
    40   47    5 1
    41   48    2 1
    42   49   48 1
    43   50   48 1
    44   51   48 1
    45   52    4 1
    46   53   52 1
    47   54   52 1
    48   55   52 1
    49   56   38 ar
    50   57   56 1
    51   58   14 1
    52   59   47 1
    53   60   47 1
    54   61    9 1
    55   14   42 ar
    56   15   21 ar
    57   17   46 1
    58   18   29 ar
    59   18   39 ar
    60   25   46 1
    61   34   58 1
    62   35   38 ar
    63   35   44 ar
    64   40   56 ar
    65   46   58 1
@<TRIPOS>SUBSTRUCTURE
     1 RES1 1

@<TRIPOS>CRYSIN
  10.2124   18.4158   12.9366  90.0000 108.2370  90.0000 231 1

