# MOL2 file generated by ConQuest
# Please check atom types

@<TRIPOS>MOLECULE
ZURYIW
    66    70     1
SMALL
NO_CHARGES
****
Generated from CSD

@<TRIPOS>ATOM
      1 O1         2.0086    1.4342    1.7595 O.3       1 RES1    0.0000
      2 O2         1.7311    3.6987    2.7255 O.3       1 RES1    0.0000
      3 N1         1.7940    4.0568    6.9072 N.3       1 RES1    0.0000
      4 N2         2.1504    0.6469    4.3219 N.3       1 RES1    0.0000
      5 C1         2.2386    2.4107    0.8821 C.ar      1 RES1    0.0000
      6 C2         2.0983    3.6947    1.4237 C.ar      1 RES1    0.0000
      7 N3        -1.1322   -0.7753    3.3906 N.3       1 RES1    0.0000
      8 C3         0.1560    5.9153    5.1779 C.2       1 RES1    0.0000
      9 C4         1.8587   -0.5649    3.7643 C.2       1 RES1    0.0000
     10 C5         0.7967    4.6496    4.7043 C.3       1 RES1    0.0000
     11 C6         2.3368    4.7951    0.6547 C.ar      1 RES1    0.0000
     12 H1         2.2319    5.6542    0.9936 H         1 RES1    0.0000
     13 C7         2.8555    3.3619   -1.2094 C.ar      1 RES1    0.0000
     14 H2         3.1052    3.2697   -2.1016 H         1 RES1    0.0000
     15 C8         1.9523    4.3048    5.5805 C.2       1 RES1    0.0000
     16 C9         1.8841    0.0867    1.3528 C.3       1 RES1    0.0000
     17 H3         2.7630   -0.2991    1.2079 H         1 RES1    0.0000
     18 H4         1.3878    0.0357    0.5214 H         1 RES1    0.0000
     19 C10        2.5969    2.2585   -0.4360 C.ar      1 RES1    0.0000
     20 H5         2.6635    1.4065   -0.8053 H         1 RES1    0.0000
     21 C11        2.2264   -1.5050    4.6652 C.2       1 RES1    0.0000
     22 H6         2.1412   -2.4244    4.5580 H         1 RES1    0.0000
     23 C12        2.7087    0.4662    5.5298 C.2       1 RES1    0.0000
     24 H7         3.0110    1.1421    6.0932 H         1 RES1    0.0000
     25 N4         3.0770    5.7530   -1.4542 N.pl3     1 RES1    0.0000
     26 C13       -0.2446   -0.1479    2.5694 C.2       1 RES1    0.0000
     27 C14        1.2836    4.9214    3.2907 C.3       1 RES1    0.0000
     28 H8         0.5628    5.2905    2.7577 H         1 RES1    0.0000
     29 H9         2.0098    5.5641    3.3081 H         1 RES1    0.0000
     30 C15       -0.8882    0.9049    2.0277 C.2       1 RES1    0.0000
     31 H10       -0.5279    1.5132    1.4237 H         1 RES1    0.0000
     32 C16        2.7392    4.5795   -0.6503 C.ar      1 RES1    0.0000
     33 C17        1.1549   -0.6808    2.4405 C.3       1 RES1    0.0000
     34 N5        -1.1668    6.1933    5.0446 N.3       1 RES1    0.0000
     35 O3         3.6372    5.5743   -2.5254 O.2       1 RES1    0.0000
     36 C18       -0.2351    3.5084    4.6970 C.3       1 RES1    0.0000
     37 H11        0.1870    2.6974    4.4059 H         1 RES1    0.0000
     38 H12       -0.9520    3.7293    4.0974 H         1 RES1    0.0000
     39 H13       -0.5845    3.3881    5.5834 H         1 RES1    0.0000
     40 C19        2.9964    3.7841    7.4721 C.2       1 RES1    0.0000
     41 H14        3.1462    3.6064    8.3730 H         1 RES1    0.0000
     42 C20        2.7597   -0.8549    5.7905 C.2       1 RES1    0.0000
     43 H15        3.0851   -1.2568    6.5640 H         1 RES1    0.0000
     44 C21        0.7403    6.9786    5.7616 C.2       1 RES1    0.0000
     45 H16        1.6428    7.0632    5.9701 H         1 RES1    0.0000
     46 C22        3.2616    4.1452    5.3285 C.2       1 RES1    0.0000
     47 H17        3.6696    4.2386    4.4972 H         1 RES1    0.0000
     48 O4         2.7969    6.8446   -1.0139 O.2       1 RES1    0.0000
     49 C23        1.1169   -2.1382    1.9828 C.3       1 RES1    0.0000
     50 H18        0.6801   -2.6720    2.6505 H         1 RES1    0.0000
     51 H19        2.0135   -2.4569    1.8553 H         1 RES1    0.0000
     52 H20        0.6341   -2.2010    1.1558 H         1 RES1    0.0000
     53 C24        3.9144    3.8135    6.5292 C.2       1 RES1    0.0000
     54 H21        4.8231    3.6461    6.6364 H         1 RES1    0.0000
     55 C25       -2.3151   -0.1124    3.3674 C.2       1 RES1    0.0000
     56 H22       -3.0769   -0.3404    3.8497 H         1 RES1    0.0000
     57 C26       -2.1986    0.9251    2.5375 C.2       1 RES1    0.0000
     58 H23       -2.8612    1.5455    2.3333 H         1 RES1    0.0000
     59 C27       -1.3790    7.4643    5.5646 C.2       1 RES1    0.0000
     60 H24       -2.1971    7.9050    5.5965 H         1 RES1    0.0000
     61 C28       -0.2558    7.9322    5.9962 C.2       1 RES1    0.0000
     62 H25       -0.1305    8.7629    6.3960 H         1 RES1    0.0000
     63 H26        2.0356    1.3860    3.9106 H         1 RES1    0.0000
     64 H27        1.0694    4.2154    7.3142 H         1 RES1    0.0000
     65 H28       -0.9368   -1.3980    3.9685 H         1 RES1    0.0000
     66 H29       -1.7466    5.7046    4.5478 H         1 RES1    0.0000
@<TRIPOS>BOND
     1    1    5 1
     2    2    6 1
     3    3   15 1
     4    4    9 1
     5    5    6 ar
     6    6   11 ar
     7    7   26 1
     8    8   10 1
     9    9   21 2
    10   10   15 1
    11   11   12 1
    12   13   14 1
    13   15   46 2
    14   16    1 1
    15   17   16 1
    16   18   16 1
    17   19    5 ar
    18   20   19 1
    19   21   22 1
    20   23    4 1
    21   24   23 1
    22   25   32 1
    23   26   30 2
    24   27    2 1
    25   28   27 1
    26   29   27 1
    27   30   31 1
    28   32   11 ar
    29   33    9 1
    30   34    8 1
    31   35   25 2
    32   36   10 1
    33   37   36 1
    34   38   36 1
    35   39   36 1
    36   40    3 1
    37   41   40 1
    38   42   21 1
    39   43   42 1
    40   44    8 2
    41   45   44 1
    42   46   47 1
    43   48   25 2
    44   49   33 1
    45   50   49 1
    46   51   49 1
    47   52   49 1
    48   53   40 2
    49   54   53 1
    50   55    7 1
    51   56   55 1
    52   57   30 1
    53   58   57 1
    54   59   34 1
    55   60   59 1
    56   61   44 1
    57   62   61 1
    58   63    4 1
    59   64    3 1
    60   65    7 1
    61   66   34 1
    62   10   27 1
    63   13   19 ar
    64   13   32 ar
    65   16   33 1
    66   23   42 2
    67   26   33 1
    68   46   53 1
    69   55   57 2
    70   59   61 2
@<TRIPOS>SUBSTRUCTURE
     1 RES1 1

@<TRIPOS>CRYSIN
   7.7823   10.8987   15.2414  72.7810  83.0160  85.0940   2 1

