# MOL2 file generated by ConQuest
# Please check atom types

@<TRIPOS>MOLECULE
ZUTCUO
    43    46     1
SMALL
NO_CHARGES
****
Generated from CSD

@<TRIPOS>ATOM
      1 O1         9.3458    0.6192   11.4469 O.3       1 RES1    0.0000
      2 O2         5.1271    1.6428   10.2767 O.2       1 RES1    0.0000
      3 O3         7.8366    1.3850   13.9131 O.2       1 RES1    0.0000
      4 N1         9.0903    1.6354   10.4036 N.3       1 RES1    0.0000
      5 N2         6.3189    1.7233   12.2271 N.am      1 RES1    0.0000
      6 C1         7.4486    1.7518    8.4909 C.2       1 RES1    0.0000
      7 H1         7.2819    2.6444    8.6917 H         1 RES1    0.0000
      8 C2         7.0478    1.2695    7.3209 C.2       1 RES1    0.0000
      9 H2         7.4347    0.4689    7.0492 H         1 RES1    0.0000
     10 C3         6.0656    1.8573    6.4120 C.ar      1 RES1    0.0000
     11 C4         6.0794    1.2795   10.9404 C.2       1 RES1    0.0000
     12 C5         8.1615    0.9062    9.4984 C.3       1 RES1    0.0000
     13 H3         8.6361    0.1775    9.0487 H         1 RES1    0.0000
     14 C6         7.1739    0.3316   10.5385 C.3       1 RES1    0.0000
     15 H4         6.8116   -0.5326   10.2510 H         1 RES1    0.0000
     16 C7         5.2928    2.9576    6.7514 C.ar      1 RES1    0.0000
     17 H5         5.4478    3.3931    7.5579 H         1 RES1    0.0000
     18 C8        10.3740    2.0221    9.9142 C.ar      1 RES1    0.0000
     19 C9         5.7962    1.2142    5.1962 C.ar      1 RES1    0.0000
     20 H6         6.2943    0.4706    4.9461 H         1 RES1    0.0000
     21 C10        7.4197    1.1455   12.7997 C.2       1 RES1    0.0000
     22 C11        8.0311    0.1909   11.7900 C.3       1 RES1    0.0000
     23 H7         8.0300   -0.7302   12.1229 H         1 RES1    0.0000
     24 C12       10.5610    2.4418    8.6196 C.ar      1 RES1    0.0000
     25 H8         9.8545    2.4133    8.0166 H         1 RES1    0.0000
     26 C13       11.4535    2.0700   10.8041 C.ar      1 RES1    0.0000
     27 H9        11.3477    1.7853   11.6827 H         1 RES1    0.0000
     28 C14       11.8008    2.9074    8.2145 C.ar      1 RES1    0.0000
     29 H10       11.9152    3.1904    7.3359 H         1 RES1    0.0000
     30 C15        4.2956    3.4199    5.9135 C.ar      1 RES1    0.0000
     31 H11        3.7954    4.1668    6.1540 H         1 RES1    0.0000
     32 C16       12.6762    2.5440   10.3694 C.ar      1 RES1    0.0000
     33 H12       13.3880    2.5775   10.9669 H         1 RES1    0.0000
     34 C17        5.4830    2.6913   12.9183 C.3       1 RES1    0.0000
     35 H13        4.7648    2.9627   12.3430 H         1 RES1    0.0000
     36 H14        6.0100    3.4567   13.1569 H         1 RES1    0.0000
     37 H15        5.1218    2.2911   13.7137 H         1 RES1    0.0000
     38 C18       12.8622    2.9643    9.0802 C.ar      1 RES1    0.0000
     39 H16       13.6894    3.2792    8.7972 H         1 RES1    0.0000
     40 C19        4.7926    1.6798    4.3690 C.ar      1 RES1    0.0000
     41 H17        4.6280    1.2443    3.5644 H         1 RES1    0.0000
     42 C20        4.0380    2.7684    4.7075 C.ar      1 RES1    0.0000
     43 H18        3.3636    3.0698    4.1433 H         1 RES1    0.0000
@<TRIPOS>BOND
     1    1    4 1
     2    2   11 2
     3    3   21 2
     4    4   12 1
     5    5   11 1
     6    6    7 1
     7    8    6 2
     8    9    8 1
     9   10    8 1
    10   11   14 1
    11   12    6 1
    12   13   12 1
    13   14   12 1
    14   15   14 1
    15   16   10 ar
    16   17   16 1
    17   18    4 1
    18   19   10 ar
    19   20   19 1
    20   21    5 1
    21   22    1 1
    22   23   22 1
    23   24   18 ar
    24   25   24 1
    25   26   18 ar
    26   27   26 1
    27   28   24 ar
    28   29   28 1
    29   30   16 ar
    30   31   30 1
    31   32   26 ar
    32   33   32 1
    33   34    5 1
    34   35   34 1
    35   36   34 1
    36   37   34 1
    37   38   28 ar
    38   39   38 1
    39   40   19 ar
    40   41   40 1
    41   42   30 ar
    42   43   42 1
    43   14   22 1
    44   21   22 1
    45   32   38 ar
    46   40   42 ar
@<TRIPOS>SUBSTRUCTURE
     1 RES1 1

@<TRIPOS>CRYSIN
  10.6882   16.7476   18.4970  90.0000  90.0000  90.0000  61 1

