# MOL2 file generated by ConQuest
# Please check atom types

@<TRIPOS>MOLECULE
ZUTDAV
    43    46     1
SMALL
NO_CHARGES
****
Generated from CSD

@<TRIPOS>ATOM
      1 O1         3.8076    3.8478   13.3072 O.3       1 RES1    0.0000
      2 O2         4.9524    1.7915    9.6452 O.2       1 RES1    0.0000
      3 O3         3.9869    0.8500   13.9884 O.2       1 RES1    0.0000
      4 N1         4.6601    1.0873   11.8026 N.am      1 RES1    0.0000
      5 N2         4.7290    4.4742   12.3859 N.3       1 RES1    0.0000
      6 C1         4.4171    1.9052   10.7227 C.2       1 RES1    0.0000
      7 C2         2.9621    5.4569   11.0277 C.2       1 RES1    0.0000
      8 H1         2.3410    5.5042   11.7173 H         1 RES1    0.0000
      9 C3         1.8889    7.4323    9.9459 C.ar      1 RES1    0.0000
     10 C4         6.0432    3.8844   12.4832 C.ar      1 RES1    0.0000
     11 C5         2.8651    6.3313   10.0509 C.2       1 RES1    0.0000
     12 H2         3.4758    6.2474    9.3544 H         1 RES1    0.0000
     13 C6         3.9471    1.4390   12.9286 C.2       1 RES1    0.0000
     14 C7         1.1530    7.8710   11.0453 C.ar      1 RES1    0.0000
     15 H3         1.2787    7.4628   11.8715 H         1 RES1    0.0000
     16 C8         4.0155    4.3849   11.0993 C.3       1 RES1    0.0000
     17 H4         4.6435    4.4711   10.3513 H         1 RES1    0.0000
     18 C9         1.6825    8.0793    8.7375 C.ar      1 RES1    0.0000
     19 H5         2.1750    7.8222    7.9920 H         1 RES1    0.0000
     20 C10        3.4102    2.9688   11.1323 C.3       1 RES1    0.0000
     21 H6         2.5776    2.9093   10.6175 H         1 RES1    0.0000
     22 C11        6.4482    3.2618   13.6529 C.ar      1 RES1    0.0000
     23 H7         5.8625    3.1908   14.3721 H         1 RES1    0.0000
     24 C12        6.9441    4.0271   11.4318 C.ar      1 RES1    0.0000
     25 H8         6.6958    4.4803   10.6579 H         1 RES1    0.0000
     26 C13        7.7279    2.7445   13.7460 C.ar      1 RES1    0.0000
     27 H9         7.9949    2.3225   14.5300 H         1 RES1    0.0000
     28 C14        5.6793    0.0488   11.7852 C.3       1 RES1    0.0000
     29 H10        5.7545   -0.3113   10.8984 H         1 RES1    0.0000
     30 H11        5.4350   -0.6508   12.3947 H         1 RES1    0.0000
     31 H12        6.5233    0.4235   12.0496 H         1 RES1    0.0000
     32 C15        8.6118    2.8437   12.6995 C.ar      1 RES1    0.0000
     33 H13        9.4654    2.4812   12.7675 H         1 RES1    0.0000
     34 C16        0.7547    9.1025    8.6236 C.ar      1 RES1    0.0000
     35 H14        0.6228    9.5160    7.8011 H         1 RES1    0.0000
     36 C17        3.1869    2.7170   12.6202 C.3       1 RES1    0.0000
     37 H15        2.2350    2.6369   12.8372 H         1 RES1    0.0000
     38 C18        8.2141    3.4869   11.5502 C.ar      1 RES1    0.0000
     39 H16        8.8101    3.5601   10.8397 H         1 RES1    0.0000
     40 C19        0.2457    8.8942   10.9296 C.ar      1 RES1    0.0000
     41 H17       -0.2301    9.1765   11.6769 H         1 RES1    0.0000
     42 C20        0.0340    9.5076    9.7087 C.ar      1 RES1    0.0000
     43 H18       -0.5926   10.1897    9.6279 H         1 RES1    0.0000
@<TRIPOS>BOND
     1    1    5 1
     2    2    6 2
     3    3   13 2
     4    4    6 1
     5    5   10 1
     6    6   20 1
     7    7    8 1
     8    9   11 1
     9   10   22 ar
    10   11    7 2
    11   12   11 1
    12   13    4 1
    13   14    9 ar
    14   15   14 1
    15   16    5 1
    16   17   16 1
    17   18    9 ar
    18   19   18 1
    19   20   16 1
    20   21   20 1
    21   22   23 1
    22   24   10 ar
    23   25   24 1
    24   26   22 ar
    25   27   26 1
    26   28    4 1
    27   29   28 1
    28   30   28 1
    29   31   28 1
    30   32   26 ar
    31   33   32 1
    32   34   18 ar
    33   35   34 1
    34   36    1 1
    35   37   36 1
    36   38   24 ar
    37   39   38 1
    38   40   14 ar
    39   41   40 1
    40   42   34 ar
    41   43   42 1
    42    7   16 1
    43   13   36 1
    44   20   36 1
    45   32   38 ar
    46   40   42 ar
@<TRIPOS>SUBSTRUCTURE
     1 RES1 1

@<TRIPOS>CRYSIN
  11.9745    7.6299   18.3877  90.0000  93.1530  90.0000 231 1

