# MOL2 file generated by ConQuest
# Please check atom types

@<TRIPOS>MOLECULE
ZUTNUX
    31    32     1
SMALL
NO_CHARGES
****
Generated from CSD

@<TRIPOS>ATOM
      1 O1         3.3904    2.7448    5.5696 O.3       1 RES1    0.0000
      2 O2         5.9776    0.4636    6.0692 O.2       1 RES1    0.0000
      3 O3         4.6067    0.1755    8.4118 O.3       1 RES1    0.0000
      4 N1         4.4318    1.8631    5.2585 N.am      1 RES1    0.0000
      5 C1         4.7154    1.7418    3.8366 C.3       1 RES1    0.0000
      6 C2         3.4011    1.5425    3.1092 C.2       1 RES1    0.0000
      7 C3         2.2522    1.7288    3.7027 C.2       1 RES1    0.0000
      8 C4         2.1089    2.1989    5.1061 C.3       1 RES1    0.0000
      9 C5         1.1491    3.3406    5.2793 C.3       1 RES1    0.0000
     10 C6         4.9993    1.1829    6.2786 C.2       1 RES1    0.0000
     11 C7         4.3490    1.3388    7.6419 C.3       1 RES1    0.0000
     12 C8         4.7901    2.6083    8.3308 C.ar      1 RES1    0.0000
     13 C9         6.1077    2.7773    8.7422 C.ar      1 RES1    0.0000
     14 C10        6.4559    3.9104    9.4551 C.ar      1 RES1    0.0000
     15 C11        5.5349    4.8787    9.7567 C.ar      1 RES1    0.0000
     16 C12        4.2267    4.7249    9.3196 C.ar      1 RES1    0.0000
     17 C13        3.8706    3.6006    8.6107 C.ar      1 RES1    0.0000
     18 H1         5.3614    0.9034    3.6624 H         1 RES1    0.0000
     19 H2         5.1971    2.6333    3.4815 H         1 RES1    0.0000
     20 H3         3.4114    1.2377    2.0691 H         1 RES1    0.0000
     21 H4         1.3501    1.5232    3.1379 H         1 RES1    0.0000
     22 H5         1.8207    1.3789    5.7351 H         1 RES1    0.0000
     23 H6         3.2900    1.4658    7.5251 H         1 RES1    0.0000
     24 H7         6.8506    2.0208    8.5184 H         1 RES1    0.0000
     25 H8         7.4825    4.0449    9.7755 H         1 RES1    0.0000
     26 H9         5.8204    5.7492   10.3364 H         1 RES1    0.0000
     27 H10        3.4945    5.4966    9.5239 H         1 RES1    0.0000
     28 H11        2.8438    3.4840    8.2828 H         1 RES1    0.0000
     29 H12        0.2129    2.9400    4.9417 H         1 RES1    0.0000
     30 H13        1.4396    4.1879    4.6871 H         1 RES1    0.0000
     31 H14        1.0900    3.6393    6.3086 H         1 RES1    0.0000
@<TRIPOS>BOND
     1    1    4 1
     2    2   10 2
     3    3   11 1
     4    4    5 1
     5    5    6 1
     6    6    7 2
     7    7    8 1
     8    8    1 1
     9    9    8 1
    10   10    4 1
    11   11   10 1
    12   12   11 1
    13   13   12 ar
    14   14   13 ar
    15   15   14 ar
    16   16   15 ar
    17   17   12 ar
    18   18    5 1
    19   19    5 1
    20   20    6 1
    21   21    7 1
    22   22    8 1
    23   23   11 1
    24   24   13 1
    25   25   14 1
    26   26   15 1
    27   27   16 1
    28   28   17 1
    29   29    9 1
    30   30    9 1
    31   31    9 1
    32   16   17 ar
@<TRIPOS>SUBSTRUCTURE
     1 RES1 1

@<TRIPOS>CRYSIN
   6.9180   21.6640    8.0390  90.0000  93.9800  90.0000  14 1

