# MOL2 file generated by ConQuest
# Please check atom types

@<TRIPOS>MOLECULE
ZUTPAF
    31    32     1
SMALL
NO_CHARGES
****
Generated from CSD

@<TRIPOS>ATOM
      1 O1        10.4409    0.2127    0.6302 O.3       1 RES1    0.0000
      2 O2         7.1128   -0.7527    0.9267 O.2       1 RES1    0.0000
      3 O3         7.1334   -0.2214   -1.7098 O.3       1 RES1    0.0000
      4 N1         9.2535   -0.1976    1.2538 N.am      1 RES1    0.0000
      5 C1         9.4229   -0.7519    2.5740 C.3       1 RES1    0.0000
      6 C2        10.3166    0.1550    3.3319 C.2       1 RES1    0.0000
      7 C3        10.9669    1.1503    2.7774 C.2       1 RES1    0.0000
      8 C4        10.9244    1.3788    1.3123 C.3       1 RES1    0.0000
      9 C5         9.9539   -2.1876    2.5062 C.3       1 RES1    0.0000
     10 C6         8.1496   -0.2807    0.4574 C.2       1 RES1    0.0000
     11 C7         8.2766    0.2048   -0.9626 C.3       1 RES1    0.0000
     12 C8         8.4788    1.7006   -1.0530 C.ar      1 RES1    0.0000
     13 C9         7.6400    2.5639   -0.3776 C.ar      1 RES1    0.0000
     14 C10        7.8008    3.9206   -0.5026 C.ar      1 RES1    0.0000
     15 C11        8.8105    4.4289   -1.2990 C.ar      1 RES1    0.0000
     16 C12        9.6423    3.5688   -1.9837 C.ar      1 RES1    0.0000
     17 C13        9.4816    2.2113   -1.8414 C.ar      1 RES1    0.0000
     18 H1         8.4711   -0.8304    3.0618 H         1 RES1    0.0000
     19 H2        10.4349   -0.0119    4.3970 H         1 RES1    0.0000
     20 H3        11.5452    1.8196    3.4031 H         1 RES1    0.0000
     21 H4         9.1648   -0.2028   -1.4055 H         1 RES1    0.0000
     22 H5         6.8142    2.1681    0.2516 H         1 RES1    0.0000
     23 H6         7.1344    4.5954    0.0235 H         1 RES1    0.0000
     24 H7         8.9482    5.5010   -1.3851 H         1 RES1    0.0000
     25 H8        10.4203    3.9627   -2.6273 H         1 RES1    0.0000
     26 H9        10.1512    1.5363   -2.3624 H         1 RES1    0.0000
     27 H10       11.9118    1.6114    0.9633 H         1 RES1    0.0000
     28 H11       10.2749    2.2067    1.1001 H         1 RES1    0.0000
     29 H12       10.0787   -2.6003    3.4894 H         1 RES1    0.0000
     30 H13       10.9003   -2.1889    2.0012 H         1 RES1    0.0000
     31 H14        9.2622   -2.7944    1.9550 H         1 RES1    0.0000
@<TRIPOS>BOND
     1    1    4 1
     2    2   10 2
     3    3   11 1
     4    4    5 1
     5    5    6 1
     6    6    7 2
     7    7    8 1
     8    8    1 1
     9    9    5 1
    10   10    4 1
    11   11   10 1
    12   12   11 1
    13   13   12 ar
    14   14   13 ar
    15   15   14 ar
    16   16   15 ar
    17   17   12 ar
    18   18    5 1
    19   19    6 1
    20   20    7 1
    21   21   11 1
    22   22   13 1
    23   23   14 1
    24   24   15 1
    25   25   16 1
    26   26   17 1
    27   27    8 1
    28   28    8 1
    29   29    9 1
    30   30    9 1
    31   31    9 1
    32   16   17 ar
@<TRIPOS>SUBSTRUCTURE
     1 RES1 1

@<TRIPOS>CRYSIN
  11.7620    7.9060   13.4060  90.0000  97.3600  90.0000 231 1

