# MOL2 file generated by ConQuest
# Please check atom types

@<TRIPOS>MOLECULE
ZUXSES
    55    58     1
SMALL
NO_CHARGES
****
Generated from CSD

@<TRIPOS>ATOM
      1 C1         5.7467   10.7678   26.3337 C.3       1 RES1    0.0000
      2 H1         5.5935   10.5508   27.2787 H         1 RES1    0.0000
      3 C2         6.5644   12.0517   26.2536 C.3       1 RES1    0.0000
      4 H2         5.9782   12.7989   26.4517 H         1 RES1    0.0000
      5 H3         7.2425   12.0236   26.9449 H         1 RES1    0.0000
      6 C3         7.2396   12.3219   24.9514 C.2       1 RES1    0.0000
      7 H4         8.1587   12.4603   24.9829 H         1 RES1    0.0000
      8 C4         6.6711   12.3865   23.7520 C.2       1 RES1    0.0000
      9 H5         7.2496   12.5595   23.0432 H         1 RES1    0.0000
     10 C5         5.2353   12.2210   23.3803 C.3       1 RES1    0.0000
     11 H6         5.0791   12.6754   22.5388 H         1 RES1    0.0000
     12 H7         4.6891   12.6548   24.0520 H         1 RES1    0.0000
     13 C6         4.7734   10.7528   23.2420 C.3       1 RES1    0.0000
     14 H8         5.4986   10.2366   22.8578 H         1 RES1    0.0000
     15 H9         4.0293   10.7210   22.6204 H         1 RES1    0.0000
     16 C7         4.3368   10.0777   24.5683 C.3       1 RES1    0.0000
     17 H10        3.3965    9.8140   24.4897 H         1 RES1    0.0000
     18 C8         5.1387    8.8714   25.0360 C.3       1 RES1    0.0000
     19 H11        4.6402    8.4553   25.7692 H         1 RES1    0.0000
     20 C9         6.3576    9.5456   25.6390 C.3       1 RES1    0.0000
     21 H12        6.8991    9.8794   24.8939 H         1 RES1    0.0000
     22 C10        7.2166    8.5647   26.4079 C.2       1 RES1    0.0000
     23 C11        7.2019    7.3013   26.0162 C.2       1 RES1    0.0000
     24 H13        7.7751    6.7188   26.4591 H         1 RES1    0.0000
     25 C12        6.3482    6.7094   24.9192 C.3       1 RES1    0.0000
     26 H14        5.7107    6.0950   25.3167 H         1 RES1    0.0000
     27 H15        6.9167    6.1988   24.3228 H         1 RES1    0.0000
     28 C13        5.5811    7.7549   24.0973 C.3       1 RES1    0.0000
     29 H16        6.1980    8.1373   23.4401 H         1 RES1    0.0000
     30 C14        8.0821    9.0846   27.5113 C.3       1 RES1    0.0000
     31 H17        8.5175    8.3496   27.9500 H         1 RES1    0.0000
     32 H18        7.5412    9.5606   28.1466 H         1 RES1    0.0000
     33 H19        8.7437    9.6775   27.1452 H         1 RES1    0.0000
     34 C15        4.4110    7.1601   23.3540 C.3       1 RES1    0.0000
     35 H20        3.8614    6.6374   23.9593 H         1 RES1    0.0000
     36 H21        3.8643    7.8643   22.9727 H         1 RES1    0.0000
     37 C16        4.2143    6.2428   21.1762 C.2       1 RES1    0.0000
     38 C17        4.9808    5.5789   20.0494 C.ar      1 RES1    0.0000
     39 C18        6.1791    4.9252   20.2156 C.ar      1 RES1    0.0000
     40 H22        6.5845    4.8794   21.0515 H         1 RES1    0.0000
     41 C19        6.7694    4.3361   19.1081 C.ar      1 RES1    0.0000
     42 C20        6.2033    4.3857   17.8426 C.ar      1 RES1    0.0000
     43 H23        6.6121    3.9901   17.1053 H         1 RES1    0.0000
     44 C21        5.0143    5.0468   17.7354 C.ar      1 RES1    0.0000
     45 C22        4.3804    5.6555   18.7951 C.ar      1 RES1    0.0000
     46 H24        3.5744    6.1044   18.6779 H         1 RES1    0.0000
     47 N1         8.0014    3.5497   19.2780 N.pl3     1 RES1    0.0000
     48 N2         4.3233    5.0674   16.4177 N.pl3     1 RES1    0.0000
     49 O1         4.4664   10.9688   25.6884 O.3       1 RES1    0.0000
     50 O2         4.9537    6.3008   22.2862 O.3       1 RES1    0.0000
     51 O3         3.1114    6.6627   21.0527 O.2       1 RES1    0.0000
     52 O4         8.4055    3.3440   20.4225 O.2       1 RES1    0.0000
     53 O5         8.5587    3.1420   18.2647 O.2       1 RES1    0.0000
     54 O6         4.9089    4.5456   15.4723 O.2       1 RES1    0.0000
     55 O7         3.2150    5.5686   16.3687 O.2       1 RES1    0.0000
@<TRIPOS>BOND
     1    1    2 1
     2    3    1 1
     3    4    3 1
     4    5    3 1
     5    6    3 1
     6    7    6 1
     7    8    6 2
     8    9    8 1
     9   10    8 1
    10   11   10 1
    11   12   10 1
    12   13   10 1
    13   14   13 1
    14   15   13 1
    15   16   13 1
    16   17   16 1
    17   18   16 1
    18   19   18 1
    19   20    1 1
    20   21   20 1
    21   22   20 1
    22   23   22 2
    23   24   23 1
    24   25   23 1
    25   26   25 1
    26   27   25 1
    27   28   18 1
    28   29   28 1
    29   30   22 1
    30   31   30 1
    31   32   30 1
    32   33   30 1
    33   34   28 1
    34   35   34 1
    35   36   34 1
    36   37   38 1
    37   38   39 ar
    38   39   40 1
    39   41   39 ar
    40   42   41 ar
    41   43   42 1
    42   44   42 ar
    43   45   38 ar
    44   46   45 1
    45   47   41 1
    46   48   44 1
    47   49    1 1
    48   50   34 1
    49   51   37 2
    50   52   47 2
    51   53   47 2
    52   54   48 2
    53   55   48 2
    54   16   49 1
    55   18   20 1
    56   25   28 1
    57   37   50 1
    58   44   45 ar
@<TRIPOS>SUBSTRUCTURE
     1 RES1 1

@<TRIPOS>CRYSIN
   5.8916    9.3511   37.0887  90.0000  90.0000  90.0000  19 1

