# MOL2 file generated by ConQuest
# Please check atom types

@<TRIPOS>MOLECULE
ZZZFKK01
    37    38     1
SMALL
NO_CHARGES
****
Generated from CSD

@<TRIPOS>ATOM
      1 C1         0.3912   17.1810    6.3011 C.2       1 RES1    0.0000
      2 C2         0.2398   18.5698    6.0210 C.ar      1 RES1    0.0000
      3 C3        -0.4642   19.0162    4.8797 C.ar      1 RES1    0.0000
      4 C4        -0.6809   20.3692    4.5959 C.ar      1 RES1    0.0000
      5 C5        -0.1597   21.2637    5.4227 C.ar      1 RES1    0.0000
      6 C6         0.5950   20.8583    6.6672 C.ar      1 RES1    0.0000
      7 C7         0.7645   19.4797    6.8938 C.ar      1 RES1    0.0000
      8 C8        -0.1268   16.1393    5.4466 C.2       1 RES1    0.0000
      9 C9        -0.1179   14.6735    5.6272 C.ar      1 RES1    0.0000
     10 C10        0.6487   13.8252    6.5836 C.ar      1 RES1    0.0000
     11 C11        0.7132   12.5526    6.5345 C.ar      1 RES1    0.0000
     12 C12       -0.0778   11.8000    5.5689 C.ar      1 RES1    0.0000
     13 C13       -0.8024   12.5116    4.6272 C.ar      1 RES1    0.0000
     14 C14       -0.7378   13.9398    4.6923 C.ar      1 RES1    0.0000
     15 N1        -0.1698   22.7295    5.3115 N.pl3     1 RES1    0.0000
     16 O1         0.4622   23.4393    5.9810 O.2       1 RES1    0.0000
     17 O2        -0.9983   23.0271    4.3840 O.2       1 RES1    0.0000
     18 C15        1.0488   16.8338    7.5621 C.1       1 RES1    0.0000
     19 N2         1.4925   16.6097    8.6082 N.1       1 RES1    0.0000
     20 N3        -0.0293   10.4848    5.5762 N.3       1 RES1    0.0000
     21 C16        0.7744    9.6945    6.4983 C.3       1 RES1    0.0000
     22 C17       -0.9606    9.7270    4.6923 C.3       1 RES1    0.0000
     23 H1        -0.8852   18.2927    4.1972 H         1 RES1    0.0000
     24 H2        -1.2200   20.7010    3.7212 H         1 RES1    0.0000
     25 H3         1.0160   21.5818    7.3496 H         1 RES1    0.0000
     26 H4         1.3029   19.1479    7.7685 H         1 RES1    0.0000
     27 H5        -0.6165   16.4900    4.5498 H         1 RES1    0.0000
     28 H6         1.2054   14.3656    7.3349 H         1 RES1    0.0000
     29 H7         1.3163   12.0156    7.2513 H         1 RES1    0.0000
     30 H8        -1.3591   11.9711    3.8760 H         1 RES1    0.0000
     31 H9        -1.3398   14.4768    3.9749 H         1 RES1    0.0000
     32 H10        0.6026    8.6409    6.3355 H         1 RES1    0.0000
     33 H11        0.5252    9.9477    7.5185 H         1 RES1    0.0000
     34 H12        1.8149    9.9220    6.3152 H         1 RES1    0.0000
     35 H13       -0.8451    8.6615    4.8269 H         1 RES1    0.0000
     36 H14       -0.7583    9.9853    3.6634 H         1 RES1    0.0000
     37 H15       -1.9713   10.0144    4.9423 H         1 RES1    0.0000
@<TRIPOS>BOND
     1    1    2 1
     2    2    3 ar
     3    3    4 ar
     4    4    5 ar
     5    5    6 ar
     6    6    7 ar
     7    7    2 ar
     8    8    1 2
     9    9    8 1
    10   10    9 ar
    11   11   10 ar
    12   12   11 ar
    13   13   12 ar
    14   14    9 ar
    15   15    5 1
    16   16   15 2
    17   17   15 2
    18   18    1 1
    19   19   18 3
    20   20   12 1
    21   21   20 1
    22   22   20 1
    23   23    3 1
    24   24    4 1
    25   25    6 1
    26   26    7 1
    27   27    8 1
    28   28   10 1
    29   29   11 1
    30   30   13 1
    31   31   14 1
    32   32   21 1
    33   33   21 1
    34   34   21 1
    35   35   22 1
    36   36   22 1
    37   37   22 1
    38   13   14 ar
@<TRIPOS>SUBSTRUCTURE
     1 RES1 1

@<TRIPOS>CRYSIN
   7.1420   17.1040    7.4490  90.0000 124.4500  90.0000   7 1

