# MOL2 file generated by ConQuest
# Please check atom types

@<TRIPOS>MOLECULE
ZZZGUG01
    21    22     1
SMALL
NO_CHARGES
****
Generated from CSD

@<TRIPOS>ATOM
      1 O1         0.7275    9.6914    0.1515 O.2       1 RES1    0.0000
      2 O2        -0.4010   11.6218   -0.8115 O.3       1 RES1    0.0000
      3 H1         0.1252   10.8179   -0.6021 H         1 RES1    0.0000
      4 O3        -1.4690   13.0266    0.5517 O.2       1 RES1    0.0000
      5 N1         0.2657   10.0219    1.3578 N.pl3     1 RES1    0.0000
      6 C1        -0.4449   11.1513    1.5450 C.ar      1 RES1    0.0000
      7 C2        -0.8646   11.5113    2.8317 C.ar      1 RES1    0.0000
      8 H2        -1.3809   12.3201    2.9045 H         1 RES1    0.0000
      9 C3        -0.5516   10.7320    3.9117 C.ar      1 RES1    0.0000
     10 H3        -0.8225   10.9786    4.8257 H         1 RES1    0.0000
     11 C4         0.1634    9.5266    3.7126 C.ar      1 RES1    0.0000
     12 C5         0.5540    9.1560    2.4084 C.ar      1 RES1    0.0000
     13 C6         1.2207    7.9386    2.1520 C.ar      1 RES1    0.0000
     14 H4         1.4493    7.7078    1.2342 H         1 RES1    0.0000
     15 C7         1.4814    7.1116    3.2074 C.ar      1 RES1    0.0000
     16 H5         1.9067    6.2624    3.0325 H         1 RES1    0.0000
     17 C8         1.1367    7.4684    4.5309 C.ar      1 RES1    0.0000
     18 H6         1.3401    6.8779    5.2632 H         1 RES1    0.0000
     19 C9         0.4981    8.6471    4.7781 C.ar      1 RES1    0.0000
     20 H7         0.2822    8.9275    5.6654 H         1 RES1    0.0000
     21 C10       -0.8103   12.0249    0.3602 C.2       1 RES1    0.0000
@<TRIPOS>BOND
     1    1    5 1
     2    2    3 1
     3    4   21 2
     4    5    6 ar
     5    6    7 ar
     6    7    8 1
     7    9    7 ar
     8   10    9 1
     9   11    9 ar
    10   12    5 ar
    11   13   12 ar
    12   14   13 1
    13   15   13 ar
    14   16   15 1
    15   17   15 ar
    16   18   17 1
    17   19   11 ar
    18   20   19 1
    19   21    2 1
    20    6   21 1
    21   11   12 ar
    22   17   19 ar
@<TRIPOS>SUBSTRUCTURE
     1 RES1 1

@<TRIPOS>CRYSIN
   3.8210   16.2406   13.0620  90.0000  91.0100  90.0000 231 1

