# MOL2 file generated by ConQuest
# Please check atom types

@<TRIPOS>MOLECULE
ZZZLXE01
    30    31     1
SMALL
NO_CHARGES
****
Generated from CSD

@<TRIPOS>ATOM
      1 H1         2.2452    1.0624    0.2072 H         1 RES1    0.0000
      2 O1         2.5313    1.3597    1.0020 O.3       1 RES1    0.0000
      3 N1         3.3926    0.3095    1.3521 N.2       1 RES1    0.0000
      4 C1         4.0335    0.5428    2.4476 C.2       1 RES1    0.0000
      5 C2         3.9134    1.7782    3.2669 C.ar      1 RES1    0.0000
      6 C3         2.8193    1.9635    4.0851 C.ar      1 RES1    0.0000
      7 H2         2.1440    1.3245    4.1047 H         1 RES1    0.0000
      8 C4         2.7167    3.0933    4.8772 C.ar      1 RES1    0.0000
      9 H3         1.9781    3.2112    5.4303 H         1 RES1    0.0000
     10 C5         3.7140    4.0439    4.8437 C.ar      1 RES1    0.0000
     11 H4         3.6466    4.8078    5.3697 H         1 RES1    0.0000
     12 C6         4.8046    3.8632    4.0356 C.ar      1 RES1    0.0000
     13 H5         5.4780    4.5036    4.0213 H         1 RES1    0.0000
     14 C7         4.9157    2.7354    3.2398 C.ar      1 RES1    0.0000
     15 H6         5.6578    2.6210    2.6904 H         1 RES1    0.0000
     16 H1B        6.7269   -1.0624    5.1057 H         1 RES1    0.0000
     17 O1B        6.4408   -1.3597    4.3109 O.3       1 RES1    0.0000
     18 N1B        5.5795   -0.3095    3.9607 N.2       1 RES1    0.0000
     19 C1B        4.9386   -0.5428    2.8652 C.2       1 RES1    0.0000
     20 C2B        5.0587   -1.7782    2.0460 C.ar      1 RES1    0.0000
     21 C3B        6.1528   -1.9635    1.2278 C.ar      1 RES1    0.0000
     22 H2B        6.8281   -1.3245    1.2081 H         1 RES1    0.0000
     23 C4B        6.2554   -3.0933    0.4357 C.ar      1 RES1    0.0000
     24 H3B        6.9940   -3.2112   -0.1174 H         1 RES1    0.0000
     25 C5B        5.2581   -4.0439    0.4691 C.ar      1 RES1    0.0000
     26 H4B        5.3255   -4.8078   -0.0568 H         1 RES1    0.0000
     27 C6B        4.1675   -3.8632    1.2772 C.ar      1 RES1    0.0000
     28 H5B        3.4941   -4.5036    1.2916 H         1 RES1    0.0000
     29 C7B        4.0564   -2.7354    2.0731 C.ar      1 RES1    0.0000
     30 H6B        3.3143   -2.6210    2.6224 H         1 RES1    0.0000
@<TRIPOS>BOND
     1    1    2 1
     2    2    3 1
     3    3    4 2
     4    4    5 1
     5    5    6 ar
     6    6    7 1
     7    8    6 ar
     8    9    8 1
     9   10    8 ar
    10   11   10 1
    11   12   10 ar
    12   13   12 1
    13   14    5 ar
    14   15   14 1
    15   16   17 1
    16   17   18 1
    17   18   19 2
    18   19    4 1
    19   20   19 1
    20   21   20 ar
    21   22   21 1
    22   23   21 ar
    23   24   23 1
    24   25   23 ar
    25   26   25 1
    26   27   25 ar
    27   28   27 1
    28   29   20 ar
    29   30   29 1
    30   12   14 ar
    31   27   29 ar
@<TRIPOS>SUBSTRUCTURE
     1 RES1 1

@<TRIPOS>CRYSIN
   5.7086   20.0073    5.8485  90.0000 114.7130  90.0000 231 1

