# MOL2 file generated by ConQuest
# Please check atom types

@<TRIPOS>MOLECULE
ZZZNQQ02
    21    21     1
SMALL
NO_CHARGES
****
Generated from CSD

@<TRIPOS>ATOM
      1 O1         1.8767    1.9476   -0.1146 O.2       1 RES1    0.0000
      2 O2         2.7592    3.2160    1.5007 O.3       1 RES1    0.0000
      3 H1         2.4374    3.8842    1.0109 H         1 RES1    0.0000
      4 O3         2.1774    1.8128    5.3409 O.2       1 RES1    0.0000
      5 O4         3.2850    1.2751    7.1132 O.2       1 RES1    0.0000
      6 N1         2.9424    1.0726    5.9516 N.pl3     1 RES1    0.0000
      7 C1         2.4494    2.0562    0.9736 C.2       1 RES1    0.0000
      8 C2         2.7937    0.8759    1.7754 C.2       1 RES1    0.0000
      9 H2         2.6662    0.0114    1.4030 H         1 RES1    0.0000
     10 C3         3.2800    0.9843    3.0114 C.2       1 RES1    0.0000
     11 H3         3.4422    1.8563    3.3519 H         1 RES1    0.0000
     12 C4         3.5803   -0.1630    3.8807 C.ar      1 RES1    0.0000
     13 C5         3.4652   -0.1242    5.2857 C.ar      1 RES1    0.0000
     14 C6         3.8102   -1.1875    6.0919 C.ar      1 RES1    0.0000
     15 H4         3.7218   -1.1210    7.0355 H         1 RES1    0.0000
     16 C7         4.2856   -2.3520    5.5177 C.ar      1 RES1    0.0000
     17 H5         4.5210   -3.0932    6.0629 H         1 RES1    0.0000
     18 C8         4.4167   -2.4289    4.1354 C.ar      1 RES1    0.0000
     19 H6         4.7456   -3.2258    3.7361 H         1 RES1    0.0000
     20 C9         4.0708   -1.3526    3.3382 C.ar      1 RES1    0.0000
     21 H7         4.1693   -1.4251    2.3962 H         1 RES1    0.0000
@<TRIPOS>BOND
     1    1    7 2
     2    2    3 1
     3    4    6 2
     4    5    6 2
     5    6   13 1
     6    7    2 1
     7    8    7 1
     8    9    8 1
     9   10    8 2
    10   11   10 1
    11   12   10 1
    12   13   12 ar
    13   14   13 ar
    14   15   14 1
    15   16   14 ar
    16   17   16 1
    17   18   16 ar
    18   19   18 1
    19   20   12 ar
    20   21   20 1
    21   18   20 ar
@<TRIPOS>SUBSTRUCTURE
     1 RES1 1

@<TRIPOS>CRYSIN
   3.6897    7.1796   31.4036  90.0000  91.3370  90.0000 231 1

