# MOL2 file generated by ConQuest
# Please check atom types

@<TRIPOS>MOLECULE
ZZZQSC02
    19    19     1
SMALL
NO_CHARGES
****
Generated from CSD

@<TRIPOS>ATOM
      1 O1        -0.1096    6.4657    3.2316 O.2       1 RES1    0.0000
      2 O2         1.6045    5.1379    3.2626 O.2       1 RES1    0.0000
      3 O3        -0.1495    8.6177   -1.6293 O.2       1 RES1    0.0000
      4 O4         1.1256    7.4850   -2.9556 O.2       1 RES1    0.0000
      5 N1         0.7262    5.7598    2.6832 N.pl3     1 RES1    0.0000
      6 N2         0.5202    7.6277   -1.9052 N.pl3     1 RES1    0.0000
      7 C1         0.6199    6.7876    0.4313 C.ar      1 RES1    0.0000
      8 C2         0.6581    5.6301    1.2143 C.ar      1 RES1    0.0000
      9 C3         0.6495    4.3374    0.7198 C.ar      1 RES1    0.0000
     10 H1         0.7008    3.5892    1.2851 H         1 RES1    0.0000
     11 C4         0.6040    4.1486   -0.6546 C.ar      1 RES1    0.0000
     12 H2         0.5924    3.2232   -1.0226 H         1 RES1    0.0000
     13 C5         0.5823    5.2439   -1.4936 C.ar      1 RES1    0.0000
     14 H3         0.5924    5.1229   -2.4444 H         1 RES1    0.0000
     15 C6         0.5772    6.5171   -0.9395 C.ar      1 RES1    0.0000
     16 C7         0.7145    8.1774    1.0144 C.3       1 RES1    0.0000
     17 H4        -0.2095    8.5097    1.1251 H         1 RES1    0.0000
     18 H5         1.1920    8.7510    0.4142 H         1 RES1    0.0000
     19 H6         1.2065    8.1515    1.8620 H         1 RES1    0.0000
@<TRIPOS>BOND
     1    1    5 2
     2    2    5 2
     3    3    6 2
     4    4    6 2
     5    5    8 1
     6    6   15 1
     7    7    8 ar
     8    8    9 ar
     9    9   10 1
    10   11    9 ar
    11   12   11 1
    12   13   11 ar
    13   14   13 1
    14   15    7 ar
    15   16    7 1
    16   17   16 1
    17   18   16 1
    18   19   16 1
    19   13   15 ar
@<TRIPOS>SUBSTRUCTURE
     1 RES1 1

@<TRIPOS>CRYSIN
   7.2244    7.7856   13.6711  90.0000  90.0000  90.0000  19 1

