# MOL2 file generated by ConQuest
# Please check atom types

@<TRIPOS>MOLECULE
ZZZVIU01
    22    24     1
SMALL
NO_CHARGES
****
Generated from CSD

@<TRIPOS>ATOM
      1 O1        -1.0977    6.7661    1.3221 O.2       1 RES1    0.0000
      2 O2         1.4628   11.4409    1.8881 O.2       1 RES1    0.0000
      3 O3        -1.5408    7.6791   -3.4845 O.2       1 RES1    0.0000
      4 O4        -0.3305    9.2065   -4.3618 O.2       1 RES1    0.0000
      5 O5        -0.4390    5.8926    6.0769 O.2       1 RES1    0.0000
      6 O6         0.8714    7.1190    7.2211 O.2       1 RES1    0.0000
      7 N1        -0.7868    8.6217   -3.4030 N.pl3     1 RES1    0.0000
      8 N2         0.2485    6.8660    6.2128 N.pl3     1 RES1    0.0000
      9 C1        -0.6424    8.2676   -0.9836 C.ar      1 RES1    0.0000
     10 C2        -0.3814    9.0819   -2.0611 C.ar      1 RES1    0.0000
     11 C3         0.2435   10.3108   -1.9400 C.ar      1 RES1    0.0000
     12 C4         0.6228   10.7315   -0.6895 C.ar      1 RES1    0.0000
     13 C5         1.0702    9.8901    4.1938 C.ar      1 RES1    0.0000
     14 C6         0.9392    9.0498    5.2737 C.ar      1 RES1    0.0000
     15 C7         0.3579    7.8087    5.0760 C.ar      1 RES1    0.0000
     16 C8        -0.1287    7.3929    3.8552 C.ar      1 RES1    0.0000
     17 C9        -0.4846    7.8050    1.4457 C.2       1 RES1    0.0000
     18 C10        0.8702   10.3873    1.7645 C.2       1 RES1    0.0000
     19 C11       -0.2364    8.6896    0.2743 C.ar      1 RES1    0.0000
     20 C12        0.4012    9.9295    0.4251 C.ar      1 RES1    0.0000
     21 C13        0.0209    8.2467    2.7678 C.ar      1 RES1    0.0000
     22 C14        0.6379    9.4940    2.9359 C.ar      1 RES1    0.0000
@<TRIPOS>BOND
     1    1   17 2
     2    2   18 2
     3    3    7 2
     4    4    7 2
     5    5    8 2
     6    6    8 2
     7    7   10 1
     8    8   15 1
     9    9   10 ar
    10   10   11 ar
    11   11   12 ar
    12   12   20 ar
    13   13   14 ar
    14   14   15 ar
    15   15   16 ar
    16   16   21 ar
    17   17   19 1
    18   18   20 1
    19   19    9 ar
    20   20   19 ar
    21   21   17 1
    22   22   13 ar
    23   18   22 1
    24   21   22 ar
@<TRIPOS>SUBSTRUCTURE
     1 RES1 1

@<TRIPOS>CRYSIN
   3.8708   12.3379   24.7479  90.0000  93.0490  90.0000  14 1

